<?xml version="1.0" encoding="UTF-8"?>

<!-- generated on 2024-02-09 23:47:43.964452 by randomTrips.py UNKNOWN
<configuration>
    <net-file value="grid4x4.net.xml"/>
    <weights-prefix value="/home/red/sumo-scenarios/grid4x4/morning/morning"/>
    <output-trip-file value="morning/morning.rou.xml"/>
    <prefix value="morning"/>
    <trip-attributes value="type=&quot;griddist1&quot;"/>
    <random-departpos value="True"/>
    <random-arrivalpos value="True"/>
    <validate value="True"/>
    <period value="2.0"/>
    <random-depart value="True"/>
</configuration>
-->

<!-- generated on 2024-02-09 23:47:43 by Eclipse SUMO duarouter Version 1.19.0
<configuration xmlns:xsi="http://www.w3.org/2001/XMLSchema-instance" xsi:noNamespaceSchemaLocation="http://sumo.dlr.de/xsd/duarouterConfiguration.xsd">

    <input>
        <net-file value="grid4x4.net.xml"/>
        <route-files value="morning/morning.rou.xml"/>
    </input>

    <output>
        <output-file value="morning/morning.rou.xml.tmp"/>
        <alternatives-output value="NUL"/>
        <write-trips value="true"/>
    </output>

    <time>
        <begin value="0"/>
        <end value="3600"/>
    </time>

    <report>
        <no-warnings value="true"/>
        <ignore-errors value="true"/>
        <no-step-log value="true"/>
    </report>

</configuration>
-->

<routes xmlns:xsi="http://www.w3.org/2001/XMLSchema-instance" xsi:noNamespaceSchemaLocation="http://sumo.dlr.de/xsd/routes_file.xsd">
    <trip id="morning0" type="griddist1" depart="1.00" departPos="10.85" arrivalPos="24.13" from="np10_nt15" to="nt7_nt6"/>
    <trip id="morning1" type="griddist1" depart="2.00" departPos="122.69" arrivalPos="4.78" from="nt10_nt11" to="nt10_nt11"/>
    <trip id="morning2" type="griddist1" depart="4.00" departPos="17.84" arrivalPos="60.09" from="np10_nt15" to="nt7_nt6"/>
    <trip id="morning3" type="griddist1" depart="6.00" departPos="55.63" arrivalPos="97.64" from="np5_nt4" to="nt10_nt11"/>
    <trip id="morning4" type="griddist1" depart="8.00" departPos="139.42" arrivalPos="91.97" from="nt5_nt1" to="nt11_nt7"/>
    <trip id="morning5" type="griddist1" depart="10.00" departPos="64.10" arrivalPos="7.77" from="np16_nt1" to="nt6_nt10"/>
    <trip id="morning6" type="griddist1" depart="10.00" departPos="93.44" arrivalPos="85.01" from="nt6_nt10" to="nt7_nt6"/>
    <trip id="morning7" type="griddist1" depart="13.00" departPos="88.90" arrivalPos="74.54" from="nt9_nt10" to="nt10_nt11"/>
    <trip id="morning8" type="griddist1" depart="14.00" departPos="168.84" arrivalPos="13.17" from="nt3_nt4" to="nt11_nt7"/>
    <trip id="morning9" type="griddist1" depart="22.00" departPos="4.45" arrivalPos="49.28" from="np15_nt5" to="nt6_nt10"/>
    <trip id="morning10" type="griddist1" depart="24.00" departPos="60.35" arrivalPos="178.24" from="nt2_nt3" to="nt6_nt10"/>
    <trip id="morning11" type="griddist1" depart="26.00" departPos="112.37" arrivalPos="17.77" from="nt15_nt14" to="nt11_nt7"/>
    <trip id="morning12" type="griddist1" depart="29.00" departPos="116.64" arrivalPos="142.72" from="nt3_nt7" to="nt7_nt6"/>
    <trip id="morning13" type="griddist1" depart="32.00" departPos="80.92" arrivalPos="42.41" from="nt4_nt8" to="nt10_nt11"/>
    <trip id="morning14" type="griddist1" depart="33.00" departPos="77.21" arrivalPos="17.04" from="nt11_nt12" to="nt11_nt7"/>
    <trip id="morning15" type="griddist1" depart="38.00" departPos="69.47" arrivalPos="27.35" from="nt13_nt14" to="nt6_nt10"/>
    <trip id="morning16" type="griddist1" depart="38.00" departPos="149.05" arrivalPos="17.30" from="nt8_nt4" to="nt10_nt11"/>
    <trip id="morning17" type="griddist1" depart="39.00" departPos="55.04" arrivalPos="99.70" from="np16_nt1" to="nt6_nt10"/>
    <trip id="morning18" type="griddist1" depart="41.00" departPos="61.18" arrivalPos="21.90" from="nt1_nt2" to="nt6_nt10"/>
    <trip id="morning19" type="griddist1" depart="47.00" departPos="134.45" arrivalPos="155.56" from="nt11_nt15" to="nt6_nt10"/>
    <trip id="morning20" type="griddist1" depart="50.00" departPos="107.59" arrivalPos="65.27" from="nt4_nt8" to="nt7_nt6"/>
    <trip id="morning21" type="griddist1" depart="51.00" departPos="121.89" arrivalPos="41.62" from="nt16_nt15" to="nt10_nt11"/>
    <trip id="morning22" type="griddist1" depart="56.00" departPos="24.92" arrivalPos="141.54" from="np16_nt1" to="nt7_nt6"/>
    <trip id="morning23" type="griddist1" depart="57.00" departPos="156.86" arrivalPos="180.88" from="nt16_nt15" to="nt7_nt6"/>
    <trip id="morning24" type="griddist1" depart="57.00" departPos="119.28" arrivalPos="4.70" from="nt6_nt5" to="nt6_nt10"/>
    <trip id="morning25" type="griddist1" depart="60.00" departPos="47.93" arrivalPos="33.49" from="nt8_nt4" to="nt7_nt6"/>
    <trip id="morning26" type="griddist1" depart="62.00" departPos="60.90" arrivalPos="1.09" from="nt3_nt7" to="nt11_nt7"/>
    <trip id="morning27" type="griddist1" depart="70.00" departPos="71.82" arrivalPos="25.42" from="nt7_nt3" to="nt6_nt10"/>
    <trip id="morning28" type="griddist1" depart="79.00" departPos="138.48" arrivalPos="39.93" from="nt2_nt3" to="nt10_nt11"/>
    <trip id="morning29" type="griddist1" depart="79.00" departPos="66.31" arrivalPos="129.31" from="nt12_nt8" to="nt11_nt7"/>
    <trip id="morning30" type="griddist1" depart="80.00" departPos="15.22" arrivalPos="9.43" from="nt5_nt9" to="nt6_nt10"/>
    <trip id="morning31" type="griddist1" depart="83.00" departPos="43.54" arrivalPos="48.76" from="np4_nt4" to="nt6_nt10"/>
    <trip id="morning32" type="griddist1" depart="84.00" departPos="82.04" arrivalPos="48.95" from="nt3_nt2" to="nt11_nt7"/>
    <trip id="morning33" type="griddist1" depart="86.00" departPos="79.79" arrivalPos="52.57" from="nt5_nt6" to="nt10_nt11"/>
    <trip id="morning34" type="griddist1" depart="87.00" departPos="123.82" arrivalPos="8.14" from="nt3_nt4" to="nt11_nt7"/>
    <trip id="morning35" type="griddist1" depart="89.00" departPos="1.38" arrivalPos="54.01" from="nt12_nt16" to="nt6_nt10"/>
    <trip id="morning36" type="griddist1" depart="96.00" departPos="19.16" arrivalPos="60.90" from="np7_nt12" to="nt10_nt11"/>
    <trip id="morning37" type="griddist1" depart="100.00" departPos="13.18" arrivalPos="68.13" from="np10_nt15" to="nt6_nt10"/>
    <trip id="morning38" type="griddist1" depart="101.00" departPos="154.67" arrivalPos="144.47" from="nt4_nt3" to="nt6_nt10"/>
    <trip id="morning39" type="griddist1" depart="102.00" departPos="2.87" arrivalPos="3.48" from="np14_nt9" to="nt7_nt6"/>
    <trip id="morning40" type="griddist1" depart="102.00" departPos="103.18" arrivalPos="106.42" from="nt8_nt12" to="nt7_nt6"/>
    <trip id="morning41" type="griddist1" depart="105.00" departPos="21.38" arrivalPos="3.74" from="nt4_nt3" to="nt11_nt7"/>
    <trip id="morning42" type="griddist1" depart="105.00" departPos="114.72" arrivalPos="154.42" from="nt11_nt10" to="nt7_nt6"/>
    <trip id="morning43" type="griddist1" depart="108.00" departPos="151.33" arrivalPos="45.16" from="nt8_nt12" to="nt10_nt11"/>
    <trip id="morning44" type="griddist1" depart="110.00" departPos="73.45" arrivalPos="55.60" from="nt1_nt2" to="nt6_nt10"/>
    <trip id="morning45" type="griddist1" depart="111.00" departPos="31.21" arrivalPos="91.48" from="nt11_nt12" to="nt11_nt7"/>
    <trip id="morning46" type="griddist1" depart="113.00" departPos="58.52" arrivalPos="62.61" from="np1_nt1" to="nt6_nt10"/>
    <trip id="morning47" type="griddist1" depart="117.00" departPos="146.05" arrivalPos="43.85" from="nt4_nt8" to="nt7_nt6"/>
    <trip id="morning48" type="griddist1" depart="118.00" departPos="38.91" arrivalPos="141.10" from="np3_nt3" to="nt10_nt11"/>
    <trip id="morning49" type="griddist1" depart="118.00" departPos="138.49" arrivalPos="91.71" from="nt2_nt6" to="nt10_nt11"/>
    <trip id="morning50" type="griddist1" depart="118.00" departPos="83.32" arrivalPos="171.52" from="nt5_nt6" to="nt7_nt6"/>
    <trip id="morning51" type="griddist1" depart="122.00" departPos="115.91" arrivalPos="154.87" from="nt16_nt15" to="nt6_nt10"/>
    <trip id="morning52" type="griddist1" depart="127.00" departPos="12.67" arrivalPos="82.07" from="nt2_nt3" to="nt10_nt11"/>
    <trip id="morning53" type="griddist1" depart="128.00" departPos="10.43" arrivalPos="90.91" from="nt10_nt9" to="nt11_nt7"/>
    <trip id="morning54" type="griddist1" depart="130.00" departPos="10.56" arrivalPos="149.04" from="nt10_nt9" to="nt11_nt7"/>
    <trip id="morning55" type="griddist1" depart="131.00" departPos="57.99" arrivalPos="114.15" from="np14_nt9" to="nt7_nt6"/>
    <trip id="morning56" type="griddist1" depart="133.00" departPos="99.33" arrivalPos="141.89" from="nt15_nt11" to="nt11_nt7"/>
    <trip id="morning57" type="griddist1" depart="134.00" departPos="150.30" arrivalPos="116.81" from="nt7_nt8" to="nt11_nt7"/>
    <trip id="morning58" type="griddist1" depart="136.00" departPos="28.00" arrivalPos="11.09" from="nt11_nt10" to="nt11_nt7"/>
    <trip id="morning59" type="griddist1" depart="147.00" departPos="23.29" arrivalPos="132.58" from="np16_nt1" to="nt7_nt6"/>
    <trip id="morning60" type="griddist1" depart="147.00" departPos="44.40" arrivalPos="81.25" from="nt15_nt11" to="nt10_nt11"/>
    <trip id="morning61" type="griddist1" depart="150.00" departPos="28.45" arrivalPos="66.82" from="nt13_nt9" to="nt6_nt10"/>
    <trip id="morning62" type="griddist1" depart="151.00" departPos="60.64" arrivalPos="107.14" from="nt10_nt6" to="nt11_nt7"/>
    <trip id="morning63" type="griddist1" depart="152.00" departPos="11.81" arrivalPos="16.94" from="nt6_nt10" to="nt6_nt10"/>
    <trip id="morning64" type="griddist1" depart="156.00" departPos="134.32" arrivalPos="117.66" from="nt3_nt4" to="nt11_nt7"/>
    <trip id="morning65" type="griddist1" depart="158.00" departPos="59.74" arrivalPos="108.16" from="nt8_nt12" to="nt7_nt6"/>
    <trip id="morning66" type="griddist1" depart="161.00" departPos="62.51" arrivalPos="125.17" from="np3_nt3" to="nt11_nt7"/>
    <trip id="morning67" type="griddist1" depart="162.00" departPos="168.09" arrivalPos="55.48" from="nt12_nt16" to="nt6_nt10"/>
    <trip id="morning68" type="griddist1" depart="163.00" departPos="150.93" arrivalPos="124.37" from="nt12_nt11" to="nt7_nt6"/>
    <trip id="morning69" type="griddist1" depart="163.00" departPos="127.21" arrivalPos="94.33" from="nt6_nt7" to="nt6_nt10"/>
    <trip id="morning70" type="griddist1" depart="164.00" departPos="64.84" arrivalPos="64.98" from="nt2_nt6" to="nt11_nt7"/>
    <trip id="morning71" type="griddist1" depart="164.00" departPos="71.08" arrivalPos="90.25" from="np5_nt4" to="nt10_nt11"/>
    <trip id="morning72" type="griddist1" depart="168.00" departPos="5.79" arrivalPos="156.73" from="np8_nt16" to="nt10_nt11"/>
    <trip id="morning73" type="griddist1" depart="171.00" departPos="56.62" arrivalPos="164.01" from="np16_nt1" to="nt7_nt6"/>
    <trip id="morning74" type="griddist1" depart="177.00" departPos="57.47" arrivalPos="23.48" from="np12_nt13" to="nt11_nt7"/>
    <trip id="morning75" type="griddist1" depart="178.00" departPos="154.30" arrivalPos="143.12" from="nt12_nt11" to="nt10_nt11"/>
    <trip id="morning76" type="griddist1" depart="180.00" departPos="78.43" arrivalPos="76.26" from="nt6_nt2" to="nt10_nt11"/>
    <trip id="morning77" type="griddist1" depart="181.00" departPos="82.44" arrivalPos="52.88" from="nt3_nt4" to="nt10_nt11"/>
    <trip id="morning78" type="griddist1" depart="185.00" departPos="95.69" arrivalPos="55.46" from="nt5_nt1" to="nt11_nt7"/>
    <trip id="morning79" type="griddist1" depart="186.00" departPos="149.65" arrivalPos="65.92" from="nt6_nt2" to="nt11_nt7"/>
    <trip id="morning80" type="griddist1" depart="187.00" departPos="85.69" arrivalPos="52.30" from="nt8_nt7" to="nt7_nt6"/>
    <trip id="morning81" type="griddist1" depart="188.00" departPos="179.34" arrivalPos="146.39" from="nt12_nt11" to="nt6_nt10"/>
    <trip id="morning82" type="griddist1" depart="189.00" departPos="44.80" arrivalPos="119.00" from="nt6_nt2" to="nt10_nt11"/>
    <trip id="morning83" type="griddist1" depart="192.00" departPos="18.38" arrivalPos="151.58" from="nt7_nt3" to="nt6_nt10"/>
    <trip id="morning84" type="griddist1" depart="200.00" departPos="136.75" arrivalPos="48.88" from="nt7_nt11" to="nt11_nt7"/>
    <trip id="morning85" type="griddist1" depart="205.00" departPos="81.19" arrivalPos="175.65" from="nt7_nt8" to="nt10_nt11"/>
    <trip id="morning86" type="griddist1" depart="205.00" departPos="26.22" arrivalPos="4.78" from="np8_nt16" to="nt11_nt7"/>
    <trip id="morning87" type="griddist1" depart="205.00" departPos="15.99" arrivalPos="178.22" from="np13_nt13" to="nt6_nt10"/>
    <trip id="morning88" type="griddist1" depart="207.00" departPos="166.80" arrivalPos="155.75" from="nt11_nt7" to="nt10_nt11"/>
    <trip id="morning89" type="griddist1" depart="207.00" departPos="24.66" arrivalPos="53.24" from="nt2_nt6" to="nt7_nt6"/>
    <trip id="morning90" type="griddist1" depart="208.00" departPos="25.76" arrivalPos="126.43" from="nt6_nt7" to="nt6_nt10"/>
    <trip id="morning91" type="griddist1" depart="210.00" departPos="14.20" arrivalPos="47.50" from="nt13_nt9" to="nt10_nt11"/>
    <trip id="morning92" type="griddist1" depart="211.00" departPos="134.97" arrivalPos="94.58" from="nt6_nt7" to="nt6_nt10"/>
    <trip id="morning93" type="griddist1" depart="213.00" departPos="19.45" arrivalPos="8.56" from="np1_nt1" to="nt11_nt7"/>
    <trip id="morning94" type="griddist1" depart="219.00" departPos="81.91" arrivalPos="20.58" from="nt12_nt8" to="nt7_nt6"/>
    <trip id="morning95" type="griddist1" depart="221.00" departPos="3.05" arrivalPos="92.36" from="nt7_nt8" to="nt6_nt10"/>
    <trip id="morning96" type="griddist1" depart="222.00" departPos="32.19" arrivalPos="114.11" from="np9_nt16" to="nt10_nt11"/>
    <trip id="morning97" type="griddist1" depart="223.00" departPos="49.83" arrivalPos="15.34" from="np9_nt16" to="nt11_nt7"/>
    <trip id="morning98" type="griddist1" depart="229.00" departPos="94.27" arrivalPos="94.16" from="nt9_nt13" to="nt10_nt11"/>
    <trip id="morning99" type="griddist1" depart="229.00" departPos="69.97" arrivalPos="84.25" from="nt9_nt5" to="nt6_nt10"/>
    <trip id="morning100" type="griddist1" depart="232.00" departPos="47.08" arrivalPos="3.01" from="nt2_nt3" to="nt7_nt6"/>
    <trip id="morning101" type="griddist1" depart="234.00" departPos="131.34" arrivalPos="112.58" from="nt6_nt10" to="nt11_nt7"/>
    <trip id="morning102" type="griddist1" depart="237.00" departPos="59.59" arrivalPos="7.94" from="nt5_nt9" to="nt6_nt10"/>
    <trip id="morning103" type="griddist1" depart="239.00" departPos="32.50" arrivalPos="144.61" from="nt15_nt16" to="nt7_nt6"/>
    <trip id="morning104" type="griddist1" depart="240.00" departPos="113.21" arrivalPos="145.42" from="nt14_nt10" to="nt6_nt10"/>
    <trip id="morning105" type="griddist1" depart="241.00" departPos="31.03" arrivalPos="54.46" from="np14_nt9" to="nt7_nt6"/>
    <trip id="morning106" type="griddist1" depart="244.00" departPos="3.14" arrivalPos="173.23" from="np12_nt13" to="nt10_nt11"/>
    <trip id="morning107" type="griddist1" depart="246.00" departPos="97.31" arrivalPos="47.02" from="nt15_nt11" to="nt7_nt6"/>
    <trip id="morning108" type="griddist1" depart="248.00" departPos="66.25" arrivalPos="144.92" from="nt5_nt6" to="nt10_nt11"/>
    <trip id="morning109" type="griddist1" depart="248.00" departPos="22.31" arrivalPos="65.95" from="nt7_nt3" to="nt11_nt7"/>
    <trip id="morning110" type="griddist1" depart="249.00" departPos="166.04" arrivalPos="69.29" from="nt7_nt6" to="nt6_nt10"/>
    <trip id="morning111" type="griddist1" depart="255.00" departPos="89.16" arrivalPos="165.64" from="nt9_nt13" to="nt11_nt7"/>
    <trip id="morning112" type="griddist1" depart="258.00" departPos="134.95" arrivalPos="14.65" from="nt15_nt14" to="nt7_nt6"/>
    <trip id="morning113" type="griddist1" depart="260.00" departPos="97.75" arrivalPos="59.62" from="nt1_nt5" to="nt7_nt6"/>
    <trip id="morning114" type="griddist1" depart="262.00" departPos="20.78" arrivalPos="107.99" from="np15_nt5" to="nt6_nt10"/>
    <trip id="morning115" type="griddist1" depart="263.00" departPos="65.25" arrivalPos="7.59" from="nt13_nt14" to="nt6_nt10"/>
    <trip id="morning116" type="griddist1" depart="267.00" departPos="178.87" arrivalPos="49.20" from="nt7_nt3" to="nt11_nt7"/>
    <trip id="morning117" type="griddist1" depart="271.00" departPos="13.45" arrivalPos="118.32" from="nt9_nt13" to="nt7_nt6"/>
    <trip id="morning118" type="griddist1" depart="276.00" departPos="121.75" arrivalPos="176.84" from="nt11_nt7" to="nt7_nt6"/>
    <trip id="morning119" type="griddist1" depart="278.00" departPos="50.47" arrivalPos="6.24" from="np3_nt3" to="nt6_nt10"/>
    <trip id="morning120" type="griddist1" depart="280.00" departPos="24.84" arrivalPos="71.06" from="np14_nt9" to="nt7_nt6"/>
    <trip id="morning121" type="griddist1" depart="280.00" departPos="126.03" arrivalPos="170.03" from="nt16_nt15" to="nt6_nt10"/>
    <trip id="morning122" type="griddist1" depart="281.00" departPos="102.85" arrivalPos="98.27" from="nt11_nt7" to="nt7_nt6"/>
    <trip id="morning123" type="griddist1" depart="281.00" departPos="44.73" arrivalPos="20.33" from="nt12_nt16" to="nt6_nt10"/>
    <trip id="morning124" type="griddist1" depart="281.00" departPos="69.35" arrivalPos="100.65" from="nt5_nt1" to="nt11_nt7"/>
    <trip id="morning125" type="griddist1" depart="282.00" departPos="82.83" arrivalPos="178.55" from="nt10_nt11" to="nt11_nt7"/>
    <trip id="morning126" type="griddist1" depart="283.00" departPos="88.02" arrivalPos="22.76" from="nt10_nt6" to="nt7_nt6"/>
    <trip id="morning127" type="griddist1" depart="284.00" departPos="161.04" arrivalPos="79.76" from="nt7_nt11" to="nt11_nt7"/>
    <trip id="morning128" type="griddist1" depart="284.00" departPos="57.33" arrivalPos="57.27" from="np15_nt5" to="nt6_nt10"/>
    <trip id="morning129" type="griddist1" depart="285.00" departPos="97.16" arrivalPos="165.43" from="nt11_nt15" to="nt10_nt11"/>
    <trip id="morning130" type="griddist1" depart="286.00" departPos="166.18" arrivalPos="114.28" from="nt7_nt11" to="nt6_nt10"/>
    <trip id="morning131" type="griddist1" depart="290.00" departPos="21.75" arrivalPos="36.02" from="nt6_nt10" to="nt6_nt10"/>
    <trip id="morning132" type="griddist1" depart="290.00" departPos="1.70" arrivalPos="102.83" from="np2_nt2" to="nt7_nt6"/>
    <trip id="morning133" type="griddist1" depart="291.00" departPos="98.86" arrivalPos="113.58" from="nt11_nt7" to="nt7_nt6"/>
    <trip id="morning134" type="griddist1" depart="292.00" departPos="67.77" arrivalPos="128.82" from="np15_nt5" to="nt11_nt7"/>
    <trip id="morning135" type="griddist1" depart="292.00" departPos="152.81" arrivalPos="13.69" from="nt15_nt14" to="nt7_nt6"/>
    <trip id="morning136" type="griddist1" depart="297.00" departPos="80.64" arrivalPos="121.88" from="nt9_nt13" to="nt6_nt10"/>
    <trip id="morning137" type="griddist1" depart="298.00" departPos="139.82" arrivalPos="118.75" from="nt11_nt15" to="nt7_nt6"/>
    <trip id="morning138" type="griddist1" depart="300.00" departPos="32.45" arrivalPos="169.03" from="np5_nt4" to="nt7_nt6"/>
    <trip id="morning139" type="griddist1" depart="302.00" departPos="10.37" arrivalPos="30.56" from="np13_nt13" to="nt10_nt11"/>
    <trip id="morning140" type="griddist1" depart="303.00" departPos="64.22" arrivalPos="168.61" from="nt11_nt10" to="nt6_nt10"/>
    <trip id="morning141" type="griddist1" depart="306.00" departPos="46.51" arrivalPos="117.87" from="nt7_nt8" to="nt7_nt6"/>
    <trip id="morning142" type="griddist1" depart="307.00" departPos="54.27" arrivalPos="99.01" from="nt16_nt12" to="nt10_nt11"/>
    <trip id="morning143" type="griddist1" depart="308.00" departPos="168.74" arrivalPos="28.62" from="nt15_nt11" to="nt10_nt11"/>
    <trip id="morning144" type="griddist1" depart="308.00" departPos="112.31" arrivalPos="150.98" from="nt3_nt2" to="nt6_nt10"/>
    <trip id="morning145" type="griddist1" depart="308.00" departPos="5.27" arrivalPos="8.44" from="nt16_nt15" to="nt7_nt6"/>
    <trip id="morning146" type="griddist1" depart="311.00" departPos="116.68" arrivalPos="137.44" from="nt2_nt6" to="nt6_nt10"/>
    <trip id="morning147" type="griddist1" depart="317.00" departPos="89.25" arrivalPos="112.39" from="nt12_nt8" to="nt6_nt10"/>
    <trip id="morning148" type="griddist1" depart="322.00" departPos="86.54" arrivalPos="149.35" from="nt10_nt6" to="nt7_nt6"/>
    <trip id="morning149" type="griddist1" depart="322.00" departPos="13.54" arrivalPos="10.74" from="nt3_nt4" to="nt11_nt7"/>
    <trip id="morning150" type="griddist1" depart="323.00" departPos="36.56" arrivalPos="108.71" from="nt13_nt9" to="nt11_nt7"/>
    <trip id="morning151" type="griddist1" depart="326.00" departPos="136.27" arrivalPos="154.25" from="nt11_nt10" to="nt6_nt10"/>
    <trip id="morning152" type="griddist1" depart="328.00" departPos="66.40" arrivalPos="104.24" from="nt9_nt13" to="nt10_nt11"/>
    <trip id="morning153" type="griddist1" depart="328.00" departPos="49.64" arrivalPos="44.43" from="nt11_nt10" to="nt11_nt7"/>
    <trip id="morning154" type="griddist1" depart="329.00" departPos="26.05" arrivalPos="110.28" from="np16_nt1" to="nt11_nt7"/>
    <trip id="morning155" type="griddist1" depart="330.00" departPos="11.98" arrivalPos="60.77" from="np9_nt16" to="nt7_nt6"/>
    <trip id="morning156" type="griddist1" depart="332.00" departPos="141.64" arrivalPos="89.29" from="nt16_nt15" to="nt11_nt7"/>
    <trip id="morning157" type="griddist1" depart="335.00" departPos="55.29" arrivalPos="4.15" from="nt15_nt11" to="nt11_nt7"/>
    <trip id="morning158" type="griddist1" depart="335.00" departPos="179.42" arrivalPos="38.55" from="nt8_nt7" to="nt6_nt10"/>
    <trip id="morning159" type="griddist1" depart="343.00" departPos="88.69" arrivalPos="163.76" from="nt11_nt15" to="nt10_nt11"/>
    <trip id="morning160" type="griddist1" depart="347.00" departPos="96.17" arrivalPos="151.81" from="nt2_nt6" to="nt11_nt7"/>
    <trip id="morning161" type="griddist1" depart="348.00" departPos="135.03" arrivalPos="141.77" from="nt13_nt14" to="nt7_nt6"/>
    <trip id="morning162" type="griddist1" depart="350.00" departPos="102.19" arrivalPos="34.88" from="nt11_nt7" to="nt11_nt7"/>
    <trip id="morning163" type="griddist1" depart="350.00" departPos="90.36" arrivalPos="141.87" from="nt16_nt12" to="nt10_nt11"/>
    <trip id="morning164" type="griddist1" depart="354.00" departPos="121.93" arrivalPos="22.05" from="nt10_nt14" to="nt7_nt6"/>
    <trip id="morning165" type="griddist1" depart="356.00" departPos="142.45" arrivalPos="60.76" from="nt9_nt13" to="nt11_nt7"/>
    <trip id="morning166" type="griddist1" depart="360.00" departPos="36.95" arrivalPos="94.49" from="nt8_nt7" to="nt7_nt6"/>
    <trip id="morning167" type="griddist1" depart="369.00" departPos="24.56" arrivalPos="61.81" from="nt15_nt11" to="nt10_nt11"/>
    <trip id="morning168" type="griddist1" depart="369.00" departPos="112.52" arrivalPos="92.38" from="nt14_nt13" to="nt11_nt7"/>
    <trip id="morning169" type="griddist1" depart="370.00" departPos="30.16" arrivalPos="177.52" from="nt11_nt10" to="nt6_nt10"/>
    <trip id="morning170" type="griddist1" depart="372.00" departPos="60.28" arrivalPos="148.43" from="nt5_nt1" to="nt11_nt7"/>
    <trip id="morning171" type="griddist1" depart="373.00" departPos="55.64" arrivalPos="146.18" from="nt15_nt16" to="nt6_nt10"/>
    <trip id="morning172" type="griddist1" depart="374.00" departPos="175.60" arrivalPos="104.60" from="nt11_nt7" to="nt6_nt10"/>
    <trip id="morning173" type="griddist1" depart="375.00" departPos="123.30" arrivalPos="4.78" from="nt6_nt10" to="nt6_nt10"/>
    <trip id="morning174" type="griddist1" depart="378.00" departPos="145.31" arrivalPos="144.06" from="nt14_nt13" to="nt7_nt6"/>
    <trip id="morning175" type="griddist1" depart="379.00" departPos="108.30" arrivalPos="30.56" from="nt16_nt15" to="nt6_nt10"/>
    <trip id="morning176" type="griddist1" depart="381.00" departPos="156.12" arrivalPos="26.48" from="nt2_nt3" to="nt6_nt10"/>
    <trip id="morning177" type="griddist1" depart="381.00" departPos="175.99" arrivalPos="20.40" from="nt3_nt4" to="nt10_nt11"/>
    <trip id="morning178" type="griddist1" depart="382.00" departPos="11.36" arrivalPos="123.74" from="np11_nt14" to="nt11_nt7"/>
    <trip id="morning179" type="griddist1" depart="382.00" departPos="164.96" arrivalPos="161.99" from="nt12_nt8" to="nt7_nt6"/>
    <trip id="morning180" type="griddist1" depart="383.00" departPos="24.74" arrivalPos="38.48" from="nt5_nt1" to="nt10_nt11"/>
    <trip id="morning181" type="griddist1" depart="386.00" departPos="97.53" arrivalPos="56.22" from="nt11_nt10" to="nt6_nt10"/>
    <trip id="morning182" type="griddist1" depart="396.00" departPos="25.67" arrivalPos="65.76" from="np5_nt4" to="nt7_nt6"/>
    <trip id="morning183" type="griddist1" depart="397.00" departPos="115.28" arrivalPos="124.24" from="nt5_nt9" to="nt6_nt10"/>
    <trip id="morning184" type="griddist1" depart="397.00" departPos="45.75" arrivalPos="103.58" from="nt2_nt1" to="nt10_nt11"/>
    <trip id="morning185" type="griddist1" depart="398.00" departPos="22.32" arrivalPos="53.64" from="np8_nt16" to="nt7_nt6"/>
    <trip id="morning186" type="griddist1" depart="401.00" departPos="23.78" arrivalPos="62.51" from="np7_nt12" to="nt6_nt10"/>
    <trip id="morning187" type="griddist1" depart="403.00" departPos="49.00" arrivalPos="22.62" from="nt8_nt4" to="nt7_nt6"/>
    <trip id="morning188" type="griddist1" depart="403.00" departPos="181.92" arrivalPos="146.65" from="nt3_nt4" to="nt11_nt7"/>
    <trip id="morning189" type="griddist1" depart="405.00" departPos="53.91" arrivalPos="53.38" from="nt9_nt10" to="nt7_nt6"/>
    <trip id="morning190" type="griddist1" depart="406.00" departPos="82.11" arrivalPos="45.95" from="nt4_nt3" to="nt11_nt7"/>
    <trip id="morning191" type="griddist1" depart="406.00" departPos="99.96" arrivalPos="173.17" from="nt14_nt13" to="nt10_nt11"/>
    <trip id="morning192" type="griddist1" depart="408.00" departPos="110.33" arrivalPos="108.92" from="nt3_nt7" to="nt10_nt11"/>
    <trip id="morning193" type="griddist1" depart="409.00" departPos="39.83" arrivalPos="114.32" from="np9_nt16" to="nt6_nt10"/>
    <trip id="morning194" type="griddist1" depart="411.00" departPos="48.64" arrivalPos="18.02" from="np13_nt13" to="nt11_nt7"/>
    <trip id="morning195" type="griddist1" depart="411.00" departPos="98.62" arrivalPos="172.44" from="nt5_nt9" to="nt10_nt11"/>
    <trip id="morning196" type="griddist1" depart="411.00" departPos="157.41" arrivalPos="88.61" from="nt12_nt8" to="nt7_nt6"/>
    <trip id="morning197" type="griddist1" depart="413.00" departPos="24.09" arrivalPos="119.88" from="np6_nt8" to="nt7_nt6"/>
    <trip id="morning198" type="griddist1" depart="417.00" departPos="102.88" arrivalPos="99.32" from="nt8_nt12" to="nt10_nt11"/>
    <trip id="morning199" type="griddist1" depart="418.00" departPos="163.65" arrivalPos="32.49" from="nt4_nt8" to="nt7_nt6"/>
    <trip id="morning200" type="griddist1" depart="419.00" departPos="170.68" arrivalPos="185.08" from="nt7_nt6" to="nt10_nt11"/>
    <trip id="morning201" type="griddist1" depart="420.00" departPos="167.84" arrivalPos="172.41" from="nt12_nt16" to="nt11_nt7"/>
    <trip id="morning202" type="griddist1" depart="421.00" departPos="1.66" arrivalPos="105.41" from="nt8_nt4" to="nt7_nt6"/>
    <trip id="morning203" type="griddist1" depart="424.00" departPos="19.29" arrivalPos="183.58" from="np16_nt1" to="nt7_nt6"/>
    <trip id="morning204" type="griddist1" depart="428.00" departPos="174.20" arrivalPos="152.51" from="nt15_nt16" to="nt11_nt7"/>
    <trip id="morning205" type="griddist1" depart="432.00" departPos="20.19" arrivalPos="30.16" from="nt14_nt10" to="nt10_nt11"/>
    <trip id="morning206" type="griddist1" depart="435.00" departPos="33.37" arrivalPos="132.00" from="nt14_nt10" to="nt11_nt7"/>
    <trip id="morning207" type="griddist1" depart="436.00" departPos="135.71" arrivalPos="31.45" from="nt6_nt10" to="nt6_nt10"/>
    <trip id="morning208" type="griddist1" depart="436.00" departPos="148.20" arrivalPos="95.64" from="nt7_nt11" to="nt7_nt6"/>
    <trip id="morning209" type="griddist1" depart="438.00" departPos="12.53" arrivalPos="25.20" from="np15_nt5" to="nt6_nt10"/>
    <trip id="morning210" type="griddist1" depart="442.00" departPos="48.40" arrivalPos="43.71" from="nt11_nt10" to="nt10_nt11"/>
    <trip id="morning211" type="griddist1" depart="442.00" departPos="56.04" arrivalPos="134.17" from="nt5_nt6" to="nt7_nt6"/>
    <trip id="morning212" type="griddist1" depart="443.00" departPos="51.96" arrivalPos="11.13" from="np10_nt15" to="nt6_nt10"/>
    <trip id="morning213" type="griddist1" depart="444.00" departPos="26.19" arrivalPos="90.05" from="np1_nt1" to="nt11_nt7"/>
    <trip id="morning214" type="griddist1" depart="447.00" departPos="57.72" arrivalPos="21.04" from="nt7_nt8" to="nt6_nt10"/>
    <trip id="morning215" type="griddist1" depart="449.00" departPos="110.14" arrivalPos="39.27" from="nt8_nt12" to="nt11_nt7"/>
    <trip id="morning216" type="griddist1" depart="456.00" departPos="48.30" arrivalPos="112.43" from="np2_nt2" to="nt10_nt11"/>
    <trip id="morning217" type="griddist1" depart="456.00" departPos="84.37" arrivalPos="96.32" from="nt12_nt8" to="nt6_nt10"/>
    <trip id="morning218" type="griddist1" depart="458.00" departPos="45.93" arrivalPos="140.08" from="nt3_nt2" to="nt10_nt11"/>
    <trip id="morning219" type="griddist1" depart="458.00" departPos="80.06" arrivalPos="130.62" from="nt7_nt3" to="nt10_nt11"/>
    <trip id="morning220" type="griddist1" depart="464.00" departPos="4.19" arrivalPos="98.14" from="np14_nt9" to="nt6_nt10"/>
    <trip id="morning221" type="griddist1" depart="467.00" departPos="26.85" arrivalPos="58.80" from="nt15_nt11" to="nt6_nt10"/>
    <trip id="morning222" type="griddist1" depart="468.00" departPos="38.12" arrivalPos="108.23" from="nt15_nt14" to="nt10_nt11"/>