<?xml version="1.0" encoding="UTF-8"?>

<!-- generated on 2024-02-16 00:46:54 by Eclipse SUMO netedit Version 1.19.0
-->

<additional xmlns:xsi="http://www.w3.org/2001/XMLSchema-instance" xsi:noNamespaceSchemaLocation="http://sumo.dlr.de/xsd/additional_file.xsd">
    <!-- Other additionals -->
    <rerouter id="road_blocker_EW" edges="nt4_nt3" pos="551.40,115.18">
        <interval begin="0.00" end="3600.00">
            <closingReroute id="nt4_nt3" disallow="all"/>
        </interval>
    </rerouter>
    <rerouter id="road_blocker_WE" edges="nt3_nt4" pos="577.86,47.38">
        <interval begin="0.00" end="3600.00">
            <closingReroute id="nt3_nt4" disallow="all"/>
        </interval>
    </rerouter>
</additional>
