<?xml version="1.0" encoding="UTF-8"?>

<!-- generated on 2024-06-06 14:12:00.938589 by randomTrips.py UNKNOWN
<configuration>
    <net-file value="grid4x4.net.xml"/>
    <output-trip-file value="random/random4.rou.xml"/>
    <prefix value="random"/>
    <trip-attributes value="type=&quot;griddistrandom&quot;"/>
    <random-departpos value="True"/>
    <random-arrivalpos value="True"/>
    <validate value="True"/>
    <period value="5.0"/>
    <random-depart value="True"/>
</configuration>
-->

<!-- generated on 2024-06-06 14:12:00 by Eclipse SUMO duarouter Version 1.19.0
<configuration xmlns:xsi="http://www.w3.org/2001/XMLSchema-instance" xsi:noNamespaceSchemaLocation="http://sumo.dlr.de/xsd/duarouterConfiguration.xsd">

    <input>
        <net-file value="grid4x4.net.xml"/>
        <route-files value="random/random4.rou.xml"/>
    </input>

    <output>
        <output-file value="random/random4.rou.xml.tmp"/>
        <alternatives-output value="NUL"/>
        <write-trips value="true"/>
    </output>

    <time>
        <begin value="0"/>
        <end value="3600"/>
    </time>

    <report>
        <no-warnings value="true"/>
        <ignore-errors value="true"/>
        <no-step-log value="true"/>
    </report>

</configuration>
-->

<routes xmlns:xsi="http://www.w3.org/2001/XMLSchema-instance" xsi:noNamespaceSchemaLocation="http://sumo.dlr.de/xsd/routes_file.xsd">
    <trip id="random0" type="griddistrandom" depart="1.00" departPos="60.49" arrivalPos="27.35" from="np9_nt16" to="nt14_nt15"/>
    <trip id="random1" type="griddistrandom" depart="2.00" departPos="45.85" arrivalPos="137.71" from="np12_nt13" to="nt9_nt13"/>
    <trip id="random2" type="griddistrandom" depart="6.00" departPos="103.16" arrivalPos="53.88" from="nt14_nt10" to="nt8_np6"/>
    <trip id="random3" type="griddistrandom" depart="8.00" departPos="27.39" arrivalPos="51.57" from="nt12_nt11" to="nt16_np9"/>
    <trip id="random4" type="griddistrandom" depart="13.00" departPos="164.34" arrivalPos="144.47" from="nt7_nt8" to="nt7_nt8"/>
    <trip id="random5" type="griddistrandom" depart="14.00" departPos="52.19" arrivalPos="86.22" from="np8_nt16" to="nt6_nt7"/>
    <trip id="random6" type="griddistrandom" depart="26.00" departPos="21.75" arrivalPos="23.89" from="nt16_nt12" to="nt8_nt4"/>
    <trip id="random7" type="griddistrandom" depart="29.00" departPos="100.16" arrivalPos="58.89" from="nt14_nt10" to="nt2_nt1"/>
    <trip id="random8" type="griddistrandom" depart="32.00" departPos="151.27" arrivalPos="57.62" from="nt5_nt6" to="nt1_np1"/>
    <trip id="random9" type="griddistrandom" depart="38.00" departPos="82.76" arrivalPos="28.52" from="nt13_nt14" to="nt8_nt4"/>
    <trip id="random10" type="griddistrandom" depart="39.00" departPos="134.72" arrivalPos="54.26" from="nt7_nt3" to="nt1_np1"/>
    <trip id="random11" type="griddistrandom" depart="47.00" departPos="86.84" arrivalPos="42.87" from="nt10_nt14" to="nt6_nt2"/>
    <trip id="random12" type="griddistrandom" depart="60.00" departPos="42.02" arrivalPos="60.18" from="nt13_nt9" to="nt5_nt1"/>
    <trip id="random13" type="griddistrandom" depart="79.00" departPos="27.99" arrivalPos="71.09" from="nt7_nt8" to="nt11_nt12"/>
    <trip id="random14" type="griddistrandom" depart="86.00" departPos="26.80" arrivalPos="22.43" from="np3_nt3" to="nt13_np13"/>
    <trip id="random15" type="griddistrandom" depart="96.00" departPos="149.25" arrivalPos="72.29" from="nt14_nt10" to="nt10_nt9"/>
    <trip id="random16" type="griddistrandom" depart="101.00" departPos="3.50" arrivalPos="59.71" from="nt5_nt9" to="nt9_np14"/>
    <trip id="random17" type="griddistrandom" depart="102.00" departPos="174.97" arrivalPos="55.42" from="nt16_nt15" to="nt1_nt2"/>
    <trip id="random18" type="griddistrandom" depart="108.00" departPos="155.11" arrivalPos="96.45" from="nt12_nt11" to="nt8_nt12"/>
    <trip id="random19" type="griddistrandom" depart="113.00" departPos="160.89" arrivalPos="90.62" from="nt5_nt1" to="nt6_nt7"/>
    <trip id="random20" type="griddistrandom" depart="122.00" departPos="69.68" arrivalPos="119.86" from="nt10_nt14" to="nt1_nt5"/>
    <trip id="random21" type="griddistrandom" depart="128.00" departPos="150.62" arrivalPos="170.67" from="nt6_nt2" to="nt5_nt6"/>
    <trip id="random22" type="griddistrandom" depart="130.00" departPos="162.52" arrivalPos="109.86" from="nt9_nt13" to="nt2_nt3"/>
    <trip id="random23" type="griddistrandom" depart="131.00" departPos="79.55" arrivalPos="160.89" from="nt3_nt2" to="nt11_nt12"/>
    <trip id="random24" type="griddistrandom" depart="147.00" departPos="24.55" arrivalPos="34.10" from="np5_nt4" to="nt14_np11"/>
    <trip id="random25" type="griddistrandom" depart="156.00" departPos="51.64" arrivalPos="71.34" from="nt11_nt12" to="nt8_np6"/>
    <trip id="random26" type="griddistrandom" depart="158.00" departPos="84.28" arrivalPos="134.23" from="nt12_nt8" to="nt7_nt3"/>
    <trip id="random27" type="griddistrandom" depart="162.00" departPos="15.20" arrivalPos="4.65" from="np13_nt13" to="nt9_np14"/>
    <trip id="random28" type="griddistrandom" depart="163.00" departPos="5.76" arrivalPos="44.31" from="nt9_nt10" to="nt10_nt6"/>
    <trip id="random29" type="griddistrandom" depart="171.00" departPos="44.27" arrivalPos="84.86" from="nt6_nt7" to="nt3_nt7"/>
    <trip id="random30" type="griddistrandom" depart="177.00" departPos="30.04" arrivalPos="17.37" from="np1_nt1" to="nt9_np14"/>
    <trip id="random31" type="griddistrandom" depart="180.00" departPos="172.70" arrivalPos="133.33" from="nt11_nt7" to="nt3_nt4"/>
    <trip id="random32" type="griddistrandom" depart="181.00" departPos="55.74" arrivalPos="103.70" from="nt5_nt9" to="nt12_nt16"/>
    <trip id="random33" type="griddistrandom" depart="187.00" departPos="162.72" arrivalPos="24.24" from="nt8_nt4" to="nt3_np3"/>
    <trip id="random34" type="griddistrandom" depart="192.00" departPos="109.89" arrivalPos="62.29" from="nt8_nt7" to="nt13_np12"/>
    <trip id="random35" type="griddistrandom" depart="205.00" departPos="22.62" arrivalPos="46.39" from="np9_nt16" to="nt5_np15"/>
    <trip id="random36" type="griddistrandom" depart="207.00" departPos="101.42" arrivalPos="7.62" from="nt6_nt2" to="nt6_nt5"/>
    <trip id="random37" type="griddistrandom" depart="208.00" departPos="12.80" arrivalPos="120.18" from="nt15_nt16" to="nt4_nt3"/>
    <trip id="random38" type="griddistrandom" depart="221.00" departPos="36.77" arrivalPos="77.69" from="np10_nt15" to="nt16_nt12"/>
    <trip id="random39" type="griddistrandom" depart="229.00" departPos="82.39" arrivalPos="27.42" from="nt11_nt7" to="nt8_nt12"/>
    <trip id="random40" type="griddistrandom" depart="232.00" departPos="48.78" arrivalPos="114.31" from="np5_nt4" to="nt2_nt1"/>
    <trip id="random41" type="griddistrandom" depart="234.00" departPos="83.31" arrivalPos="147.97" from="nt8_nt12" to="nt6_nt2"/>
    <trip id="random42" type="griddistrandom" depart="237.00" departPos="45.56" arrivalPos="70.10" from="nt1_nt2" to="nt15_np10"/>
    <trip id="random43" type="griddistrandom" depart="239.00" departPos="134.49" arrivalPos="36.81" from="nt10_nt14" to="nt1_np1"/>
    <trip id="random44" type="griddistrandom" depart="240.00" departPos="91.74" arrivalPos="58.24" from="nt3_nt2" to="nt15_nt11"/>
    <trip id="random45" type="griddistrandom" depart="241.00" departPos="47.95" arrivalPos="51.90" from="nt14_nt15" to="nt15_nt14"/>
    <trip id="random46" type="griddistrandom" depart="248.00" departPos="99.60" arrivalPos="38.75" from="nt1_nt5" to="nt8_np6"/>
    <trip id="random47" type="griddistrandom" depart="249.00" departPos="30.48" arrivalPos="99.49" from="np6_nt8" to="nt13_nt9"/>
    <trip id="random48" type="griddistrandom" depart="260.00" departPos="53.39" arrivalPos="83.18" from="np9_nt16" to="nt1_nt2"/>
    <trip id="random49" type="griddistrandom" depart="262.00" departPos="30.33" arrivalPos="45.16" from="np11_nt14" to="nt14_nt13"/>
    <trip id="random50" type="griddistrandom" depart="271.00" departPos="102.72" arrivalPos="63.80" from="nt3_nt2" to="nt15_nt16"/>
    <trip id="random51" type="griddistrandom" depart="276.00" departPos="63.04" arrivalPos="81.31" from="nt9_nt5" to="nt2_nt6"/>
    <trip id="random52" type="griddistrandom" depart="278.00" departPos="133.87" arrivalPos="58.57" from="nt10_nt9" to="nt13_nt14"/>
    <trip id="random53" type="griddistrandom" depart="280.00" departPos="123.68" arrivalPos="12.99" from="nt5_nt1" to="nt9_np14"/>
    <trip id="random54" type="griddistrandom" depart="281.00" departPos="105.65" arrivalPos="136.23" from="nt5_nt1" to="nt14_nt10"/>
    <trip id="random55" type="griddistrandom" depart="283.00" departPos="149.21" arrivalPos="53.09" from="nt1_nt5" to="nt9_nt13"/>
    <trip id="random56" type="griddistrandom" depart="284.00" departPos="126.88" arrivalPos="23.49" from="nt11_nt7" to="nt14_nt15"/>
    <trip id="random57" type="griddistrandom" depart="284.00" departPos="21.91" arrivalPos="175.22" from="np12_nt13" to="nt10_nt9"/>
    <trip id="random58" type="griddistrandom" depart="286.00" departPos="19.04" arrivalPos="2.20" from="nt2_nt3" to="nt6_nt10"/>
    <trip id="random59" type="griddistrandom" depart="290.00" departPos="61.05" arrivalPos="179.20" from="nt10_nt6" to="nt1_nt2"/>
    <trip id="random60" type="griddistrandom" depart="290.00" departPos="21.17" arrivalPos="12.13" from="nt10_nt11" to="nt7_nt8"/>
    <trip id="random61" type="griddistrandom" depart="292.00" departPos="127.41" arrivalPos="9.80" from="nt14_nt15" to="nt3_np3"/>
    <trip id="random62" type="griddistrandom" depart="297.00" departPos="15.26" arrivalPos="16.83" from="nt6_nt2" to="nt9_np14"/>
    <trip id="random63" type="griddistrandom" depart="300.00" departPos="106.83" arrivalPos="110.82" from="nt16_nt12" to="nt16_nt12"/>
    <trip id="random64" type="griddistrandom" depart="308.00" departPos="162.80" arrivalPos="22.30" from="nt5_nt9" to="nt16_np8"/>
    <trip id="random65" type="griddistrandom" depart="308.00" departPos="105.54" arrivalPos="11.18" from="nt1_nt2" to="nt16_nt15"/>
    <trip id="random66" type="griddistrandom" depart="322.00" departPos="141.56" arrivalPos="112.09" from="nt9_nt10" to="nt11_nt15"/>
    <trip id="random67" type="griddistrandom" depart="322.00" departPos="44.52" arrivalPos="102.45" from="nt10_nt11" to="nt11_nt12"/>
    <trip id="random68" type="griddistrandom" depart="326.00" departPos="44.53" arrivalPos="84.21" from="np4_nt4" to="nt16_nt12"/>
    <trip id="random69" type="griddistrandom" depart="328.00" departPos="21.20" arrivalPos="159.54" from="np12_nt13" to="nt14_nt13"/>
    <trip id="random70" type="griddistrandom" depart="335.00" departPos="17.94" arrivalPos="146.86" from="np14_nt9" to="nt13_nt14"/>
    <trip id="random71" type="griddistrandom" depart="347.00" departPos="36.72" arrivalPos="21.30" from="nt1_nt2" to="nt6_nt7"/>
    <trip id="random72" type="griddistrandom" depart="350.00" departPos="19.92" arrivalPos="26.40" from="np8_nt16" to="nt12_nt11"/>
    <trip id="random73" type="griddistrandom" depart="356.00" departPos="40.34" arrivalPos="152.98" from="np13_nt13" to="nt6_nt5"/>
    <trip id="random74" type="griddistrandom" depart="372.00" departPos="83.99" arrivalPos="19.64" from="nt8_nt12" to="nt1_np1"/>
    <trip id="random75" type="griddistrandom" depart="378.00" departPos="96.76" arrivalPos="78.45" from="nt12_nt16" to="nt14_nt10"/>
    <trip id="random76" type="griddistrandom" depart="379.00" departPos="131.63" arrivalPos="45.28" from="nt1_nt5" to="nt8_np6"/>
    <trip id="random77" type="griddistrandom" depart="382.00" departPos="50.57" arrivalPos="159.71" from="np11_nt14" to="nt13_nt14"/>
    <trip id="random78" type="griddistrandom" depart="382.00" departPos="141.94" arrivalPos="147.20" from="nt1_nt2" to="nt10_nt14"/>
    <trip id="random79" type="griddistrandom" depart="383.00" departPos="32.52" arrivalPos="93.00" from="nt16_nt15" to="nt6_nt10"/>
    <trip id="random80" type="griddistrandom" depart="386.00" departPos="178.65" arrivalPos="78.11" from="nt13_nt9" to="nt14_nt10"/>
    <trip id="random81" type="griddistrandom" depart="396.00" departPos="87.23" arrivalPos="73.18" from="nt6_nt5" to="nt9_nt13"/>
    <trip id="random82" type="griddistrandom" depart="397.00" departPos="29.85" arrivalPos="73.77" from="nt11_nt10" to="nt11_nt15"/>
    <trip id="random83" type="griddistrandom" depart="401.00" departPos="74.32" arrivalPos="141.15" from="nt14_nt15" to="nt4_nt3"/>
    <trip id="random84" type="griddistrandom" depart="403.00" departPos="18.93" arrivalPos="21.52" from="np12_nt13" to="nt11_nt12"/>
    <trip id="random85" type="griddistrandom" depart="409.00" departPos="147.83" arrivalPos="0.21" from="nt5_nt9" to="nt7_nt8"/>
    <trip id="random86" type="griddistrandom" depart="413.00" departPos="9.71" arrivalPos="35.15" from="nt7_nt3" to="nt1_np16"/>
    <trip id="random87" type="griddistrandom" depart="418.00" departPos="82.04" arrivalPos="9.25" from="nt2_nt1" to="nt1_nt5"/>
    <trip id="random88" type="griddistrandom" depart="419.00" departPos="51.61" arrivalPos="66.06" from="nt10_nt14" to="nt12_np7"/>
    <trip id="random89" type="griddistrandom" depart="421.00" departPos="116.93" arrivalPos="143.24" from="nt14_nt15" to="nt10_nt14"/>
    <trip id="random90" type="griddistrandom" depart="424.00" departPos="2.54" arrivalPos="75.72" from="nt4_nt3" to="nt14_nt15"/>
    <trip id="random91" type="griddistrandom" depart="435.00" departPos="8.51" arrivalPos="169.71" from="np8_nt16" to="nt7_nt3"/>
    <trip id="random92" type="griddistrandom" depart="438.00" departPos="167.13" arrivalPos="54.17" from="nt2_nt6" to="nt12_nt11"/>
    <trip id="random93" type="griddistrandom" depart="442.00" departPos="89.55" arrivalPos="84.62" from="nt4_nt3" to="nt16_nt12"/>
    <trip id="random94" type="griddistrandom" depart="444.00" departPos="34.16" arrivalPos="111.24" from="nt14_nt10" to="nt12_nt11"/>
    <trip id="random95" type="griddistrandom" depart="447.00" departPos="12.51" arrivalPos="57.95" from="nt5_nt1" to="nt12_np7"/>
    <trip id="random96" type="griddistrandom" depart="449.00" departPos="141.16" arrivalPos="47.88" from="nt7_nt11" to="nt15_nt11"/>
    <trip id="random97" type="griddistrandom" depart="456.00" departPos="62.81" arrivalPos="107.63" from="np10_nt15" to="nt5_nt6"/>
    <trip id="random98" type="griddistrandom" depart="456.00" departPos="82.88" arrivalPos="89.89" from="nt3_nt2" to="nt7_nt8"/>
    <trip id="random99" type="griddistrandom" depart="458.00" departPos="70.01" arrivalPos="167.17" from="nt11_nt12" to="nt6_nt10"/>
    <trip id="random100" type="griddistrandom" depart="458.00" departPos="42.79" arrivalPos="68.63" from="nt7_nt3" to="nt9_nt13"/>
    <trip id="random101" type="griddistrandom" depart="469.00" departPos="57.02" arrivalPos="84.76" from="nt7_nt11" to="nt16_nt12"/>
    <trip id="random102" type="griddistrandom" depart="472.00" departPos="177.12" arrivalPos="59.43" from="nt8_nt12" to="nt16_np8"/>
    <trip id="random103" type="griddistrandom" depart="472.00" departPos="172.90" arrivalPos="23.43" from="nt2_nt6" to="nt12_nt11"/>
    <trip id="random104" type="griddistrandom" depart="473.00" departPos="18.63" arrivalPos="151.43" from="nt9_nt10" to="nt15_nt11"/>
    <trip id="random105" type="griddistrandom" depart="491.00" departPos="1.04" arrivalPos="25.83" from="np16_nt1" to="nt8_nt4"/>
    <trip id="random106" type="griddistrandom" depart="495.00" departPos="13.41" arrivalPos="140.05" from="nt7_nt3" to="nt9_nt13"/>
    <trip id="random107" type="griddistrandom" depart="510.00" departPos="73.77" arrivalPos="14.39" from="nt10_nt11" to="nt3_nt7"/>
    <trip id="random108" type="griddistrandom" depart="511.00" departPos="99.04" arrivalPos="170.98" from="nt11_nt12" to="nt4_nt8"/>
    <trip id="random109" type="griddistrandom" depart="515.00" departPos="90.56" arrivalPos="40.58" from="nt2_nt3" to="nt8_np6"/>
    <trip id="random110" type="griddistrandom" depart="521.00" departPos="127.02" arrivalPos="51.50" from="nt2_nt1" to="nt13_nt9"/>
    <trip id="random111" type="griddistrandom" depart="522.00" departPos="73.38" arrivalPos="141.12" from="np8_nt16" to="nt11_nt12"/>
    <trip id="random112" type="griddistrandom" depart="525.00" departPos="30.88" arrivalPos="53.66" from="nt4_nt3" to="nt11_nt15"/>
    <trip id="random113" type="griddistrandom" depart="535.00" departPos="4.21" arrivalPos="26.88" from="np11_nt14" to="nt15_np10"/>
    <trip id="random114" type="griddistrandom" depart="536.00" departPos="76.48" arrivalPos="122.18" from="nt13_nt14" to="nt13_nt9"/>
    <trip id="random115" type="griddistrandom" depart="541.00" departPos="45.71" arrivalPos="68.55" from="np5_nt4" to="nt12_nt8"/>
    <trip id="random116" type="griddistrandom" depart="542.00" departPos="108.23" arrivalPos="41.61" from="nt3_nt4" to="nt1_nt5"/>
    <trip id="random117" type="griddistrandom" depart="550.00" departPos="123.77" arrivalPos="60.95" from="nt2_nt3" to="nt1_np16"/>
    <trip id="random118" type="griddistrandom" depart="566.00" departPos="97.95" arrivalPos="13.71" from="nt14_nt10" to="nt14_nt13"/>
    <trip id="random119" type="griddistrandom" depart="571.00" departPos="55.52" arrivalPos="172.40" from="nt8_nt7" to="nt9_nt5"/>
    <trip id="random120" type="griddistrandom" depart="571.00" departPos="54.14" arrivalPos="67.76" from="nt3_nt7" to="nt1_np16"/>
    <trip id="random121" type="griddistrandom" depart="574.00" departPos="68.34" arrivalPos="64.33" from="nt7_nt11" to="nt11_nt15"/>
    <trip id="random122" type="griddistrandom" depart="585.00" departPos="3.93" arrivalPos="56.28" from="nt10_nt6" to="nt5_np15"/>
    <trip id="random123" type="griddistrandom" depart="606.00" departPos="155.02" arrivalPos="144.45" from="nt12_nt16" to="nt10_nt11"/>
    <trip id="random124" type="griddistrandom" depart="610.00" departPos="133.53" arrivalPos="149.24" from="nt9_nt13" to="nt8_nt4"/>
    <trip id="random125" type="griddistrandom" depart="626.00" departPos="42.71" arrivalPos="143.71" from="nt7_nt8" to="nt6_nt2"/>
    <trip id="random126" type="griddistrandom" depart="626.00" departPos="18.80" arrivalPos="56.67" from="np8_nt16" to="nt13_np12"/>
    <trip id="random127" type="griddistrandom" depart="633.00" departPos="24.51" arrivalPos="17.41" from="nt5_nt9" to="nt4_nt8"/>
    <trip id="random128" type="griddistrandom" depart="634.00" departPos="146.37" arrivalPos="5.98" from="nt2_nt3" to="nt10_nt6"/>
    <trip id="random129" type="griddistrandom" depart="636.00" departPos="163.01" arrivalPos="24.50" from="nt11_nt7" to="nt12_np7"/>
    <trip id="random130" type="griddistrandom" depart="636.00" departPos="140.94" arrivalPos="65.73" from="nt12_nt8" to="nt13_np12"/>
    <trip id="random131" type="griddistrandom" depart="644.00" departPos="48.84" arrivalPos="10.63" from="nt11_nt7" to="nt2_np2"/>
    <trip id="random132" type="griddistrandom" depart="646.00" departPos="173.36" arrivalPos="20.01" from="nt8_nt12" to="nt9_np14"/>
    <trip id="random133" type="griddistrandom" depart="647.00" departPos="83.92" arrivalPos="13.98" from="nt7_nt3" to="nt6_nt7"/>
    <trip id="random134" type="griddistrandom" depart="652.00" departPos="125.53" arrivalPos="125.17" from="nt5_nt6" to="nt13_nt14"/>
    <trip id="random135" type="griddistrandom" depart="653.00" departPos="99.87" arrivalPos="16.76" from="nt12_nt16" to="nt7_nt6"/>
    <trip id="random136" type="griddistrandom" depart="655.00" departPos="22.15" arrivalPos="27.64" from="nt12_nt16" to="nt14_np11"/>
    <trip id="random137" type="griddistrandom" depart="661.00" departPos="68.28" arrivalPos="47.89" from="nt5_nt1" to="nt14_np11"/>
    <trip id="random138" type="griddistrandom" depart="661.00" departPos="84.49" arrivalPos="111.02" from="nt11_nt7" to="nt4_nt8"/>
    <trip id="random139" type="griddistrandom" depart="665.00" departPos="113.23" arrivalPos="48.57" from="nt8_nt7" to="nt15_np10"/>
    <trip id="random140" type="griddistrandom" depart="666.00" departPos="130.12" arrivalPos="44.02" from="nt2_nt3" to="nt1_np16"/>
    <trip id="random141" type="griddistrandom" depart="669.00" departPos="2.40" arrivalPos="178.47" from="np1_nt1" to="nt10_nt6"/>
    <trip id="random142" type="griddistrandom" depart="674.00" departPos="34.73" arrivalPos="69.65" from="np1_nt1" to="nt13_nt9"/>
    <trip id="random143" type="griddistrandom" depart="676.00" departPos="124.81" arrivalPos="36.63" from="nt11_nt7" to="nt9_np14"/>
    <trip id="random144" type="griddistrandom" depart="681.00" departPos="164.33" arrivalPos="121.55" from="nt1_nt2" to="nt5_nt6"/>
    <trip id="random145" type="griddistrandom" depart="695.00" departPos="174.29" arrivalPos="50.13" from="nt6_nt7" to="nt3_nt7"/>
    <trip id="random146" type="griddistrandom" depart="700.00" departPos="79.69" arrivalPos="16.01" from="nt3_nt7" to="nt13_np13"/>
    <trip id="random147" type="griddistrandom" depart="712.00" departPos="65.83" arrivalPos="161.58" from="nt11_nt7" to="nt9_nt13"/>
    <trip id="random148" type="griddistrandom" depart="725.00" departPos="49.44" arrivalPos="179.70" from="nt2_nt6" to="nt10_nt9"/>
    <trip id="random149" type="griddistrandom" depart="731.00" departPos="17.01" arrivalPos="38.01" from="nt8_nt7" to="nt7_nt11"/>
    <trip id="random150" type="griddistrandom" depart="731.00" departPos="9.39" arrivalPos="59.76" from="nt2_nt3" to="nt9_nt13"/>
    <trip id="random151" type="griddistrandom" depart="734.00" departPos="36.77" arrivalPos="154.01" from="nt9_nt5" to="nt6_nt5"/>
    <trip id="random152" type="griddistrandom" depart="751.00" departPos="145.70" arrivalPos="43.24" from="nt16_nt12" to="nt3_nt2"/>
    <trip id="random153" type="griddistrandom" depart="761.00" departPos="106.80" arrivalPos="51.46" from="nt5_nt9" to="nt6_nt5"/>
    <trip id="random154" type="griddistrandom" depart="777.00" departPos="96.81" arrivalPos="143.09" from="nt9_nt13" to="nt9_nt5"/>
    <trip id="random155" type="griddistrandom" depart="778.00" departPos="8.51" arrivalPos="66.49" from="np1_nt1" to="nt7_nt8"/>
    <trip id="random156" type="griddistrandom" depart="779.00" departPos="2.83" arrivalPos="49.25" from="nt6_nt10" to="nt3_nt2"/>
    <trip id="random157" type="griddistrandom" depart="779.00" departPos="7.34" arrivalPos="11.39" from="np2_nt2" to="nt16_nt12"/>
    <trip id="random158" type="griddistrandom" depart="784.00" departPos="106.38" arrivalPos="83.89" from="nt13_nt9" to="nt15_nt16"/>
    <trip id="random159" type="griddistrandom" depart="785.00" departPos="54.54" arrivalPos="162.85" from="np8_nt16" to="nt3_nt7"/>
    <trip id="random160" type="griddistrandom" depart="787.00" departPos="119.40" arrivalPos="5.78" from="nt3_nt2" to="nt14_nt15"/>
    <trip id="random161" type="griddistrandom" depart="791.00" departPos="76.39" arrivalPos="20.04" from="nt9_nt5" to="nt7_nt6"/>
    <trip id="random162" type="griddistrandom" depart="807.00" departPos="166.90" arrivalPos="20.81" from="nt4_nt3" to="nt1_np1"/>
    <trip id="random163" type="griddistrandom" depart="814.00" departPos="40.33" arrivalPos="43.90" from="np3_nt3" to="nt12_np7"/>
    <trip id="random164" type="griddistrandom" depart="814.00" departPos="110.88" arrivalPos="22.12" from="nt4_nt3" to="nt16_np8"/>
    <trip id="random165" type="griddistrandom" depart="817.00" departPos="142.12" arrivalPos="21.24" from="nt15_nt11" to="nt16_nt15"/>
    <trip id="random166" type="griddistrandom" depart="823.00" departPos="98.80" arrivalPos="64.91" from="nt2_nt6" to="nt8_np6"/>
    <trip id="random167" type="griddistrandom" depart="833.00" departPos="76.80" arrivalPos="62.06" from="nt13_nt14" to="nt8_np6"/>
    <trip id="random168" type="griddistrandom" depart="836.00" departPos="56.01" arrivalPos="58.00" from="nt12_nt16" to="nt5_nt6"/>
    <trip id="random169" type="griddistrandom" depart="858.00" departPos="127.47" arrivalPos="88.02" from="nt10_nt11" to="nt9_nt10"/>
    <trip id="random170" type="griddistrandom" depart="860.00" departPos="29.28" arrivalPos="138.20" from="np15_nt5" to="nt11_nt12"/>
    <trip id="random171" type="griddistrandom" depart="860.00" departPos="10.75" arrivalPos="71.75" from="nt11_nt7" to="nt12_np7"/>
    <trip id="random172" type="griddistrandom" depart="862.00" departPos="73.62" arrivalPos="162.14" from="nt16_nt12" to="nt4_nt3"/>
    <trip id="random173" type="griddistrandom" depart="864.00" departPos="169.98" arrivalPos="9.55" from="nt8_nt7" to="nt16_nt15"/>
    <trip id="random174" type="griddistrandom" depart="867.00" departPos="18.57" arrivalPos="94.18" from="nt10_nt6" to="nt14_nt15"/>
    <trip id="random175" type="griddistrandom" depart="870.00" departPos="54.73" arrivalPos="64.98" from="np3_nt3" to="nt1_nt2"/>
    <trip id="random176" type="griddistrandom" depart="873.00" departPos="49.92" arrivalPos="40.53" from="nt16_nt12" to="nt11_nt7"/>
    <trip id="random177" type="griddistrandom" depart="875.00" departPos="142.44" arrivalPos="111.41" from="nt13_nt14" to="nt2_nt6"/>
    <trip id="random178" type="griddistrandom" depart="875.00" departPos="113.03" arrivalPos="117.88" from="nt3_nt4" to="nt2_nt6"/>
    <trip id="random179" type="griddistrandom" depart="877.00" departPos="48.97" arrivalPos="136.62" from="nt3_nt7" to="nt10_nt14"/>
    <trip id="random180" type="griddistrandom" depart="881.00" departPos="32.51" arrivalPos="26.59" from="nt8_nt12" to="nt15_nt14"/>
    <trip id="random181" type="griddistrandom" depart="891.00" departPos="137.52" arrivalPos="180.37" from="nt3_nt2" to="nt11_nt10"/>
    <trip id="random182" type="griddistrandom" depart="895.00" departPos="25.51" arrivalPos="84.20" from="np15_nt5" to="nt2_nt1"/>
    <trip id="random183" type="griddistrandom" depart="898.00" departPos="20.96" arrivalPos="174.73" from="np4_nt4" to="nt14_nt15"/>
    <trip id="random184" type="griddistrandom" depart="899.00" departPos="27.88" arrivalPos="56.58" from="nt1_nt5" to="nt8_np6"/>
    <trip id="random185" type="griddistrandom" depart="902.00" departPos="30.04" arrivalPos="78.70" from="np13_nt13" to="nt11_nt12"/>
    <trip id="random186" type="griddistrandom" depart="902.00" departPos="38.63" arrivalPos="91.81" from="nt1_nt5" to="nt16_nt12"/>
    <trip id="random187" type="griddistrandom" depart="911.00" departPos="121.54" arrivalPos="106.29" from="nt11_nt15" to="nt11_nt7"/>
    <trip id="random188" type="griddistrandom" depart="913.00" departPos="40.93" arrivalPos="182.71" from="nt15_nt14" to="nt14_nt15"/>
    <trip id="random189" type="griddistrandom" depart="914.00" departPos="64.09" arrivalPos="52.03" from="np13_nt13" to="nt13_np13"/>
    <trip id="random190" type="griddistrandom" depart="920.00" departPos="22.27" arrivalPos="92.31" from="nt5_nt6" to="nt14_nt13"/>
    <trip id="random191" type="griddistrandom" depart="932.00" departPos="98.85" arrivalPos="17.26" from="nt13_nt14" to="nt12_np7"/>
    <trip id="random192" type="griddistrandom" depart="933.00" departPos="63.47" arrivalPos="73.70" from="nt16_nt12" to="nt4_nt3"/>
    <trip id="random193" type="griddistrandom" depart="937.00" departPos="82.39" arrivalPos="14.45" from="nt5_nt1" to="nt16_nt15"/>
    <trip id="random194" type="griddistrandom" depart="938.00" departPos="75.06" arrivalPos="118.81" from="nt11_nt10" to="nt16_nt15"/>
    <trip id="random195" type="griddistrandom" depart="942.00" departPos="173.14" arrivalPos="12.89" from="nt10_nt6" to="nt16_np9"/>
    <trip id="random196" type="griddistrandom" depart="952.00" departPos="127.99" arrivalPos="24.53" from="nt8_nt7" to="nt1_np16"/>
    <trip id="random197" type="griddistrandom" depart="953.00" departPos="80.86" arrivalPos="71.76" from="nt13_nt14" to="nt11_nt15"/>
    <trip id="random198" type="griddistrandom" depart="963.00" departPos="50.57" arrivalPos="41.12" from="np15_nt5" to="nt7_nt8"/>
    <trip id="random199" type="griddistrandom" depart="968.00" departPos="113.47" arrivalPos="98.48" from="nt5_nt9" to="nt11_nt10"/>
    <trip id="random200" type="griddistrandom" depart="969.00" departPos="26.33" arrivalPos="171.71" from="np6_nt8" to="nt6_nt2"/>
    <trip id="random201" type="griddistrandom" depart="974.00" departPos="18.42" arrivalPos="47.51" from="nt2_nt6" to="nt12_nt11"/>
    <trip id="random202" type="griddistrandom" depart="977.00" departPos="56.94" arrivalPos="13.99" from="np5_nt4" to="nt12_nt11"/>
    <trip id="random203" type="griddistrandom" depart="980.00" departPos="86.11" arrivalPos="36.42" from="nt8_nt7" to="nt4_np4"/>
    <trip id="random204" type="griddistrandom" depart="986.00" departPos="163.71" arrivalPos="115.22" from="nt1_nt2" to="nt4_nt8"/>
    <trip id="random205" type="griddistrandom" depart="995.00" departPos="174.00" arrivalPos="23.71" from="nt9_nt5" to="nt15_np10"/>
    <trip id="random206" type="griddistrandom" depart="1000.00" departPos="113.14" arrivalPos="147.80" from="nt13_nt9" to="nt1_nt2"/>
    <trip id="random207" type="griddistrandom" depart="1002.00" departPos="13.77" arrivalPos="85.70" from="nt1_nt2" to="nt15_nt14"/>
    <trip id="random208" type="griddistrandom" depart="1003.00" departPos="21.53" arrivalPos="119.65" from="np12_nt13" to="nt15_nt16"/>
    <trip id="random209" type="griddistrandom" depart="1008.00" departPos="106.46" arrivalPos="71.36" from="nt9_nt13" to="nt11_nt12"/>
    <trip id="random210" type="griddistrandom" depart="1010.00" departPos="137.14" arrivalPos="7.61" from="nt1_nt2" to="nt9_nt10"/>
    <trip id="random211" type="griddistrandom" depart="1015.00" departPos="33.73" arrivalPos="39.08" from="nt8_nt12" to="nt3_np3"/>
    <trip id="random212" type="griddistrandom" depart="1016.00" departPos="80.73" arrivalPos="150.52" from="nt15_nt11" to="nt9_nt10"/>
    <trip id="random213" type="griddistrandom" depart="1018.00" departPos="15.65" arrivalPos="115.79" from="nt6_nt7" to="nt9_nt13"/>
    <trip id="random214" type="griddistrandom" depart="1022.00" departPos="74.32" arrivalPos="93.91" from="np12_nt13" to="nt5_nt1"/>
    <trip id="random215" type="griddistrandom" depart="1023.00" departPos="170.37" arrivalPos="71.90" from="nt2_nt1" to="nt15_nt16"/>
    <trip id="random216" type="griddistrandom" depart="1028.00" departPos="9.38" arrivalPos="113.05" from="nt5_nt9" to="nt4_nt8"/>