<?xml version="1.0" encoding="UTF-8"?>

<!-- generated on 2024-02-09 23:57:12.291942 by randomTrips.py UNKNOWN
<configuration>
    <net-file value="grid4x4.net.xml"/>
    <weights-prefix value="/home/red/sumo-scenarios/grid4x4/evening/evening"/>
    <output-trip-file value="/home/red/sumo-scenarios/grid4x4/evening/evening.rou.xml"/>
    <prefix value="evening"/>
    <trip-attributes value="type=&quot;griddist1&quot;"/>
    <random-departpos value="True"/>
    <random-arrivalpos value="True"/>
    <random value="True"/>
    <validate value="True"/>
    <period value="2.0"/>
    <random-depart value="True"/>
</configuration>
-->

<!-- generated on 2024-02-09 23:57:12 by Eclipse SUMO duarouter Version 1.19.0
<configuration xmlns:xsi="http://www.w3.org/2001/XMLSchema-instance" xsi:noNamespaceSchemaLocation="http://sumo.dlr.de/xsd/duarouterConfiguration.xsd">

    <input>
        <net-file value="grid4x4.net.xml"/>
        <route-files value="/home/red/sumo-scenarios/grid4x4/evening/evening.rou.xml"/>
    </input>

    <output>
        <output-file value="/home/red/sumo-scenarios/grid4x4/evening/evening.rou.xml.tmp"/>
        <alternatives-output value="NUL"/>
        <write-trips value="true"/>
    </output>

    <time>
        <begin value="0"/>
        <end value="3600"/>
    </time>

    <report>
        <no-warnings value="true"/>
        <ignore-errors value="true"/>
        <no-step-log value="true"/>
    </report>

</configuration>
-->

<routes xmlns:xsi="http://www.w3.org/2001/XMLSchema-instance" xsi:noNamespaceSchemaLocation="http://sumo.dlr.de/xsd/routes_file.xsd">
    <trip id="evening0" type="griddist1" depart="0.00" departPos="14.15" arrivalPos="40.36" from="nt6_nt10" to="np4_nt4"/>
    <trip id="evening1" type="griddist1" depart="2.00" departPos="52.86" arrivalPos="43.15" from="nt10_nt11" to="np2_nt2"/>
    <trip id="evening2" type="griddist1" depart="4.00" departPos="162.01" arrivalPos="0.13" from="nt7_nt6" to="np11_nt14"/>
    <trip id="evening3" type="griddist1" depart="4.00" departPos="139.00" arrivalPos="65.62" from="nt11_nt7" to="nt16_np9"/>
    <trip id="evening4" type="griddist1" depart="6.00" departPos="10.12" arrivalPos="46.86" from="nt6_nt10" to="np10_nt15"/>
    <trip id="evening5" type="griddist1" depart="12.00" departPos="102.09" arrivalPos="23.46" from="nt11_nt7" to="nt16_np9"/>
    <trip id="evening6" type="griddist1" depart="12.00" departPos="21.29" arrivalPos="49.09" from="nt7_nt6" to="np13_nt13"/>
    <trip id="evening7" type="griddist1" depart="13.00" departPos="60.04" arrivalPos="46.68" from="nt6_nt10" to="np1_nt1"/>
    <trip id="evening8" type="griddist1" depart="15.00" departPos="71.71" arrivalPos="17.03" from="nt10_nt11" to="nt13_np13"/>
    <trip id="evening9" type="griddist1" depart="16.00" departPos="152.18" arrivalPos="62.29" from="nt7_nt6" to="np2_nt2"/>
    <trip id="evening10" type="griddist1" depart="17.00" departPos="24.93" arrivalPos="11.88" from="nt11_nt7" to="np6_nt8"/>
    <trip id="evening11" type="griddist1" depart="21.00" departPos="174.97" arrivalPos="13.81" from="nt7_nt6" to="nt12_np7"/>
    <trip id="evening12" type="griddist1" depart="26.00" departPos="66.77" arrivalPos="31.54" from="nt10_nt11" to="np9_nt16"/>
    <trip id="evening13" type="griddist1" depart="28.00" departPos="119.78" arrivalPos="62.57" from="nt10_nt11" to="np8_nt16"/>
    <trip id="evening14" type="griddist1" depart="31.00" departPos="133.49" arrivalPos="37.22" from="nt10_nt11" to="nt2_np2"/>
    <trip id="evening15" type="griddist1" depart="31.00" departPos="119.82" arrivalPos="51.79" from="nt10_nt11" to="np15_nt5"/>
    <trip id="evening16" type="griddist1" depart="31.00" departPos="134.90" arrivalPos="26.94" from="nt6_nt10" to="nt1_np16"/>
    <trip id="evening17" type="griddist1" depart="36.00" departPos="81.87" arrivalPos="49.64" from="nt6_nt10" to="nt15_np10"/>
    <trip id="evening18" type="griddist1" depart="45.00" departPos="41.88" arrivalPos="24.43" from="nt10_nt11" to="nt13_np12"/>
    <trip id="evening19" type="griddist1" depart="46.00" departPos="31.53" arrivalPos="23.55" from="nt11_nt7" to="np13_nt13"/>
    <trip id="evening20" type="griddist1" depart="48.00" departPos="76.52" arrivalPos="23.51" from="nt10_nt11" to="nt2_np2"/>
    <trip id="evening21" type="griddist1" depart="52.00" departPos="98.71" arrivalPos="54.92" from="nt11_nt7" to="nt4_np5"/>
    <trip id="evening22" type="griddist1" depart="53.00" departPos="147.94" arrivalPos="22.04" from="nt7_nt6" to="np14_nt9"/>
    <trip id="evening23" type="griddist1" depart="53.00" departPos="76.29" arrivalPos="14.00" from="nt6_nt10" to="np14_nt9"/>
    <trip id="evening24" type="griddist1" depart="57.00" departPos="2.44" arrivalPos="24.08" from="nt10_nt11" to="np8_nt16"/>
    <trip id="evening25" type="griddist1" depart="57.00" departPos="48.36" arrivalPos="12.51" from="nt6_nt10" to="np16_nt1"/>
    <trip id="evening26" type="griddist1" depart="58.00" departPos="55.33" arrivalPos="0.50" from="nt11_nt7" to="np5_nt4"/>
    <trip id="evening27" type="griddist1" depart="61.00" departPos="94.84" arrivalPos="5.27" from="nt11_nt7" to="np13_nt13"/>
    <trip id="evening28" type="griddist1" depart="61.00" departPos="33.78" arrivalPos="38.40" from="nt11_nt7" to="np14_nt9"/>
    <trip id="evening29" type="griddist1" depart="66.00" departPos="30.42" arrivalPos="18.34" from="nt10_nt11" to="np4_nt4"/>
    <trip id="evening30" type="griddist1" depart="71.00" departPos="157.77" arrivalPos="25.73" from="nt6_nt10" to="nt1_np1"/>
    <trip id="evening31" type="griddist1" depart="72.00" departPos="84.45" arrivalPos="60.67" from="nt10_nt11" to="np12_nt13"/>
    <trip id="evening32" type="griddist1" depart="74.00" departPos="68.03" arrivalPos="23.08" from="nt10_nt11" to="nt2_np2"/>
    <trip id="evening33" type="griddist1" depart="75.00" departPos="177.12" arrivalPos="53.95" from="nt11_nt7" to="np4_nt4"/>
    <trip id="evening34" type="griddist1" depart="76.00" departPos="39.81" arrivalPos="42.51" from="nt6_nt10" to="np6_nt8"/>
    <trip id="evening35" type="griddist1" depart="76.00" departPos="57.42" arrivalPos="51.06" from="nt10_nt11" to="np9_nt16"/>
    <trip id="evening36" type="griddist1" depart="76.00" departPos="17.07" arrivalPos="35.81" from="nt6_nt10" to="nt16_np8"/>
    <trip id="evening37" type="griddist1" depart="79.00" departPos="5.50" arrivalPos="45.04" from="nt10_nt11" to="nt4_np4"/>
    <trip id="evening38" type="griddist1" depart="81.00" departPos="13.31" arrivalPos="1.91" from="nt10_nt11" to="nt1_np16"/>
    <trip id="evening39" type="griddist1" depart="84.00" departPos="35.96" arrivalPos="36.77" from="nt10_nt11" to="nt8_np6"/>
    <trip id="evening40" type="griddist1" depart="84.00" departPos="131.22" arrivalPos="38.03" from="nt7_nt6" to="np2_nt2"/>
    <trip id="evening41" type="griddist1" depart="85.00" departPos="70.57" arrivalPos="63.69" from="nt11_nt7" to="np1_nt1"/>
    <trip id="evening42" type="griddist1" depart="85.00" departPos="54.23" arrivalPos="8.55" from="nt10_nt11" to="nt15_np10"/>
    <trip id="evening43" type="griddist1" depart="85.00" departPos="33.18" arrivalPos="19.78" from="nt10_nt11" to="np14_nt9"/>
    <trip id="evening44" type="griddist1" depart="87.00" departPos="54.35" arrivalPos="32.53" from="nt6_nt10" to="np4_nt4"/>
    <trip id="evening45" type="griddist1" depart="90.00" departPos="77.60" arrivalPos="1.20" from="nt11_nt7" to="nt8_np6"/>
    <trip id="evening46" type="griddist1" depart="91.00" departPos="59.82" arrivalPos="44.30" from="nt10_nt11" to="nt4_np5"/>
    <trip id="evening47" type="griddist1" depart="94.00" departPos="177.29" arrivalPos="25.93" from="nt7_nt6" to="np14_nt9"/>
    <trip id="evening48" type="griddist1" depart="95.00" departPos="149.56" arrivalPos="21.87" from="nt7_nt6" to="np2_nt2"/>
    <trip id="evening49" type="griddist1" depart="98.00" departPos="176.33" arrivalPos="35.57" from="nt11_nt7" to="nt13_np13"/>
    <trip id="evening50" type="griddist1" depart="101.00" departPos="65.30" arrivalPos="44.54" from="nt10_nt11" to="np8_nt16"/>
    <trip id="evening51" type="griddist1" depart="103.00" departPos="139.80" arrivalPos="63.97" from="nt10_nt11" to="nt1_np16"/>
    <trip id="evening52" type="griddist1" depart="104.00" departPos="23.98" arrivalPos="65.97" from="nt7_nt6" to="np14_nt9"/>
    <trip id="evening53" type="griddist1" depart="105.00" departPos="17.42" arrivalPos="5.84" from="nt6_nt10" to="np7_nt12"/>
    <trip id="evening54" type="griddist1" depart="106.00" departPos="10.84" arrivalPos="44.52" from="nt10_nt11" to="np10_nt15"/>
    <trip id="evening55" type="griddist1" depart="107.00" departPos="152.53" arrivalPos="5.94" from="nt6_nt10" to="nt2_np2"/>
    <trip id="evening56" type="griddist1" depart="112.00" departPos="112.16" arrivalPos="51.80" from="nt11_nt7" to="nt13_np12"/>
    <trip id="evening57" type="griddist1" depart="112.00" departPos="114.02" arrivalPos="61.16" from="nt10_nt11" to="nt13_np13"/>
    <trip id="evening58" type="griddist1" depart="113.00" departPos="141.32" arrivalPos="57.44" from="nt6_nt10" to="nt1_np1"/>
    <trip id="evening59" type="griddist1" depart="114.00" departPos="20.48" arrivalPos="19.50" from="nt11_nt7" to="np4_nt4"/>
    <trip id="evening60" type="griddist1" depart="114.00" departPos="3.35" arrivalPos="71.01" from="nt10_nt11" to="np5_nt4"/>
    <trip id="evening61" type="griddist1" depart="117.00" departPos="95.11" arrivalPos="58.56" from="nt11_nt7" to="nt8_np6"/>
    <trip id="evening62" type="griddist1" depart="126.00" departPos="35.39" arrivalPos="2.78" from="nt7_nt6" to="np16_nt1"/>
    <trip id="evening63" type="griddist1" depart="127.00" departPos="153.99" arrivalPos="57.59" from="nt6_nt10" to="np8_nt16"/>
    <trip id="evening64" type="griddist1" depart="128.00" departPos="70.82" arrivalPos="33.43" from="nt11_nt7" to="np13_nt13"/>
    <trip id="evening65" type="griddist1" depart="129.00" departPos="52.16" arrivalPos="2.40" from="nt11_nt7" to="np14_nt9"/>
    <trip id="evening66" type="griddist1" depart="129.00" departPos="163.80" arrivalPos="24.42" from="nt6_nt10" to="np7_nt12"/>
    <trip id="evening67" type="griddist1" depart="133.00" departPos="61.24" arrivalPos="61.92" from="nt7_nt6" to="nt5_np15"/>
    <trip id="evening68" type="griddist1" depart="135.00" departPos="81.49" arrivalPos="35.48" from="nt7_nt6" to="nt13_np12"/>
    <trip id="evening69" type="griddist1" depart="139.00" departPos="26.11" arrivalPos="16.18" from="nt6_nt10" to="np3_nt3"/>
    <trip id="evening70" type="griddist1" depart="142.00" departPos="14.50" arrivalPos="37.18" from="nt6_nt10" to="nt16_np9"/>
    <trip id="evening71" type="griddist1" depart="145.00" departPos="7.55" arrivalPos="35.18" from="nt11_nt7" to="np8_nt16"/>
    <trip id="evening72" type="griddist1" depart="146.00" departPos="61.49" arrivalPos="74.62" from="nt11_nt7" to="nt15_np10"/>
    <trip id="evening73" type="griddist1" depart="147.00" departPos="134.85" arrivalPos="19.14" from="nt10_nt11" to="np4_nt4"/>
    <trip id="evening74" type="griddist1" depart="147.00" departPos="123.83" arrivalPos="45.75" from="nt10_nt11" to="nt13_np13"/>
    <trip id="evening75" type="griddist1" depart="148.00" departPos="4.80" arrivalPos="29.80" from="nt7_nt6" to="np3_nt3"/>
    <trip id="evening76" type="griddist1" depart="150.00" departPos="167.69" arrivalPos="62.61" from="nt6_nt10" to="np16_nt1"/>
    <trip id="evening77" type="griddist1" depart="150.00" departPos="17.57" arrivalPos="68.34" from="nt7_nt6" to="nt7_nt6"/>
    <trip id="evening78" type="griddist1" depart="152.00" departPos="179.00" arrivalPos="30.84" from="nt6_nt10" to="np14_nt9"/>
    <trip id="evening79" type="griddist1" depart="157.00" departPos="109.85" arrivalPos="46.90" from="nt6_nt10" to="nt4_np4"/>
    <trip id="evening80" type="griddist1" depart="158.00" departPos="54.10" arrivalPos="62.54" from="nt7_nt6" to="nt1_np16"/>
    <trip id="evening81" type="griddist1" depart="159.00" departPos="161.93" arrivalPos="22.77" from="nt6_nt10" to="np14_nt9"/>
    <trip id="evening82" type="griddist1" depart="159.00" departPos="62.21" arrivalPos="16.52" from="nt6_nt10" to="np1_nt1"/>
    <trip id="evening83" type="griddist1" depart="167.00" departPos="45.32" arrivalPos="51.67" from="nt11_nt7" to="nt15_np10"/>
    <trip id="evening84" type="griddist1" depart="168.00" departPos="27.73" arrivalPos="31.66" from="nt6_nt10" to="np4_nt4"/>
    <trip id="evening85" type="griddist1" depart="170.00" departPos="146.28" arrivalPos="48.60" from="nt11_nt7" to="np1_nt1"/>
    <trip id="evening86" type="griddist1" depart="172.00" departPos="95.62" arrivalPos="58.29" from="nt10_nt11" to="np2_nt2"/>
    <trip id="evening87" type="griddist1" depart="173.00" departPos="70.89" arrivalPos="4.66" from="nt10_nt11" to="np13_nt13"/>
    <trip id="evening88" type="griddist1" depart="173.00" departPos="68.65" arrivalPos="37.37" from="nt11_nt7" to="nt3_np3"/>
    <trip id="evening89" type="griddist1" depart="176.00" departPos="68.64" arrivalPos="30.09" from="nt11_nt7" to="nt15_np10"/>
    <trip id="evening90" type="griddist1" depart="179.00" departPos="114.85" arrivalPos="68.74" from="nt10_nt11" to="np7_nt12"/>
    <trip id="evening91" type="griddist1" depart="185.00" departPos="20.45" arrivalPos="55.19" from="nt6_nt10" to="np5_nt4"/>
    <trip id="evening92" type="griddist1" depart="189.00" departPos="121.55" arrivalPos="26.43" from="nt7_nt6" to="nt15_np10"/>
    <trip id="evening93" type="griddist1" depart="189.00" departPos="0.24" arrivalPos="22.08" from="nt7_nt6" to="np7_nt12"/>
    <trip id="evening94" type="griddist1" depart="191.00" departPos="66.03" arrivalPos="34.88" from="nt10_nt11" to="nt13_np12"/>
    <trip id="evening95" type="griddist1" depart="191.00" departPos="2.63" arrivalPos="9.02" from="nt11_nt7" to="nt1_np1"/>
    <trip id="evening96" type="griddist1" depart="191.00" departPos="65.20" arrivalPos="43.82" from="nt10_nt11" to="nt2_np2"/>
    <trip id="evening97" type="griddist1" depart="195.00" departPos="141.26" arrivalPos="33.46" from="nt11_nt7" to="nt16_np9"/>
    <trip id="evening98" type="griddist1" depart="201.00" departPos="158.44" arrivalPos="6.01" from="nt6_nt10" to="np14_nt9"/>
    <trip id="evening99" type="griddist1" depart="201.00" departPos="101.86" arrivalPos="7.31" from="nt7_nt6" to="nt9_np14"/>
    <trip id="evening100" type="griddist1" depart="204.00" departPos="102.31" arrivalPos="45.88" from="nt10_nt11" to="np3_nt3"/>
    <trip id="evening101" type="griddist1" depart="208.00" departPos="17.20" arrivalPos="44.14" from="nt7_nt6" to="np10_nt15"/>
    <trip id="evening102" type="griddist1" depart="211.00" departPos="34.00" arrivalPos="44.84" from="nt7_nt6" to="nt9_np14"/>
    <trip id="evening103" type="griddist1" depart="212.00" departPos="69.41" arrivalPos="26.01" from="nt10_nt11" to="nt3_np3"/>
    <trip id="evening104" type="griddist1" depart="212.00" departPos="130.69" arrivalPos="68.16" from="nt6_nt10" to="np7_nt12"/>
    <trip id="evening105" type="griddist1" depart="214.00" departPos="83.39" arrivalPos="8.22" from="nt6_nt10" to="nt1_np1"/>
    <trip id="evening106" type="griddist1" depart="215.00" departPos="17.34" arrivalPos="23.83" from="nt11_nt7" to="np16_nt1"/>
    <trip id="evening107" type="griddist1" depart="216.00" departPos="131.39" arrivalPos="45.11" from="nt10_nt11" to="np1_nt1"/>
    <trip id="evening108" type="griddist1" depart="222.00" departPos="58.21" arrivalPos="1.22" from="nt10_nt11" to="np11_nt14"/>
    <trip id="evening109" type="griddist1" depart="225.00" departPos="167.36" arrivalPos="42.96" from="nt10_nt11" to="np5_nt4"/>
    <trip id="evening110" type="griddist1" depart="228.00" departPos="98.22" arrivalPos="9.56" from="nt7_nt6" to="nt13_np13"/>
    <trip id="evening111" type="griddist1" depart="231.00" departPos="175.52" arrivalPos="6.26" from="nt10_nt11" to="nt13_np13"/>
    <trip id="evening112" type="griddist1" depart="235.00" departPos="3.84" arrivalPos="32.77" from="nt7_nt6" to="np14_nt9"/>
    <trip id="evening113" type="griddist1" depart="235.00" departPos="115.10" arrivalPos="58.59" from="nt7_nt6" to="nt15_np10"/>
    <trip id="evening114" type="griddist1" depart="236.00" departPos="50.80" arrivalPos="8.36" from="nt11_nt7" to="np4_nt4"/>
    <trip id="evening115" type="griddist1" depart="240.00" departPos="105.45" arrivalPos="36.72" from="nt6_nt10" to="np12_nt13"/>
    <trip id="evening116" type="griddist1" depart="242.00" departPos="171.77" arrivalPos="73.72" from="nt10_nt11" to="nt15_np10"/>
    <trip id="evening117" type="griddist1" depart="243.00" departPos="156.49" arrivalPos="15.89" from="nt11_nt7" to="np4_nt4"/>
    <trip id="evening118" type="griddist1" depart="243.00" departPos="69.00" arrivalPos="5.76" from="nt10_nt11" to="np14_nt9"/>
    <trip id="evening119" type="griddist1" depart="245.00" departPos="91.99" arrivalPos="69.13" from="nt6_nt10" to="nt14_np11"/>
    <trip id="evening120" type="griddist1" depart="250.00" departPos="67.51" arrivalPos="72.61" from="nt11_nt7" to="np10_nt15"/>
    <trip id="evening121" type="griddist1" depart="251.00" departPos="67.97" arrivalPos="55.26" from="nt11_nt7" to="np16_nt1"/>
    <trip id="evening122" type="griddist1" depart="252.00" departPos="13.01" arrivalPos="15.27" from="nt11_nt7" to="nt16_np8"/>
    <trip id="evening123" type="griddist1" depart="255.00" departPos="24.86" arrivalPos="33.79" from="nt10_nt11" to="nt15_np10"/>
    <trip id="evening124" type="griddist1" depart="256.00" departPos="131.20" arrivalPos="25.41" from="nt11_nt7" to="nt1_np1"/>
    <trip id="evening125" type="griddist1" depart="257.00" departPos="48.80" arrivalPos="64.54" from="nt7_nt6" to="np6_nt8"/>
    <trip id="evening126" type="griddist1" depart="259.00" departPos="163.88" arrivalPos="44.31" from="nt6_nt10" to="nt8_np6"/>
    <trip id="evening127" type="griddist1" depart="260.00" departPos="146.52" arrivalPos="63.60" from="nt11_nt7" to="nt16_np9"/>
    <trip id="evening128" type="griddist1" depart="265.00" departPos="51.32" arrivalPos="65.48" from="nt11_nt7" to="np15_nt5"/>
    <trip id="evening129" type="griddist1" depart="266.00" departPos="41.18" arrivalPos="11.14" from="nt11_nt7" to="np1_nt1"/>
    <trip id="evening130" type="griddist1" depart="269.00" departPos="84.88" arrivalPos="33.35" from="nt7_nt6" to="np13_nt13"/>
    <trip id="evening131" type="griddist1" depart="274.00" departPos="100.02" arrivalPos="65.25" from="nt11_nt7" to="nt16_np9"/>
    <trip id="evening132" type="griddist1" depart="276.00" departPos="73.01" arrivalPos="44.42" from="nt10_nt11" to="np12_nt13"/>
    <trip id="evening133" type="griddist1" depart="277.00" departPos="52.55" arrivalPos="30.54" from="nt6_nt10" to="np6_nt8"/>
    <trip id="evening134" type="griddist1" depart="277.00" departPos="29.14" arrivalPos="17.94" from="nt6_nt10" to="nt13_np13"/>
    <trip id="evening135" type="griddist1" depart="278.00" departPos="57.70" arrivalPos="73.34" from="nt6_nt10" to="np11_nt14"/>
    <trip id="evening136" type="griddist1" depart="279.00" departPos="34.73" arrivalPos="28.90" from="nt6_nt10" to="nt2_np2"/>
    <trip id="evening137" type="griddist1" depart="279.00" departPos="62.78" arrivalPos="61.66" from="nt6_nt10" to="nt8_np6"/>
    <trip id="evening138" type="griddist1" depart="284.00" departPos="44.88" arrivalPos="63.55" from="nt10_nt11" to="nt13_np12"/>
    <trip id="evening139" type="griddist1" depart="287.00" departPos="111.39" arrivalPos="4.81" from="nt7_nt6" to="nt13_np12"/>
    <trip id="evening140" type="griddist1" depart="288.00" departPos="38.51" arrivalPos="62.83" from="nt6_nt10" to="nt2_np2"/>
    <trip id="evening141" type="griddist1" depart="293.00" departPos="125.38" arrivalPos="1.66" from="nt6_nt10" to="np3_nt3"/>
    <trip id="evening142" type="griddist1" depart="296.00" departPos="41.23" arrivalPos="3.31" from="nt6_nt10" to="nt13_np13"/>
    <trip id="evening143" type="griddist1" depart="299.00" departPos="19.28" arrivalPos="57.98" from="nt7_nt6" to="nt1_np1"/>
    <trip id="evening144" type="griddist1" depart="302.00" departPos="91.11" arrivalPos="48.95" from="nt7_nt6" to="np13_nt13"/>
    <trip id="evening145" type="griddist1" depart="303.00" departPos="40.51" arrivalPos="56.77" from="nt10_nt11" to="np7_nt12"/>
    <trip id="evening146" type="griddist1" depart="305.00" departPos="181.39" arrivalPos="0.11" from="nt10_nt11" to="np10_nt15"/>
    <trip id="evening147" type="griddist1" depart="305.00" departPos="162.80" arrivalPos="9.63" from="nt11_nt7" to="np6_nt8"/>
    <trip id="evening148" type="griddist1" depart="305.00" departPos="72.40" arrivalPos="30.75" from="nt10_nt11" to="np10_nt15"/>
    <trip id="evening149" type="griddist1" depart="311.00" departPos="146.70" arrivalPos="8.80" from="nt10_nt11" to="nt3_np3"/>
    <trip id="evening150" type="griddist1" depart="314.00" departPos="41.98" arrivalPos="3.44" from="nt6_nt10" to="np14_nt9"/>
    <trip id="evening151" type="griddist1" depart="314.00" departPos="77.91" arrivalPos="13.66" from="nt11_nt7" to="np11_nt14"/>
    <trip id="evening152" type="griddist1" depart="314.00" departPos="108.20" arrivalPos="36.21" from="nt11_nt7" to="nt15_np10"/>
    <trip id="evening153" type="griddist1" depart="316.00" departPos="70.07" arrivalPos="4.17" from="nt11_nt7" to="nt16_np9"/>
    <trip id="evening154" type="griddist1" depart="316.00" departPos="126.56" arrivalPos="24.54" from="nt7_nt6" to="np7_nt12"/>
    <trip id="evening155" type="griddist1" depart="317.00" departPos="128.06" arrivalPos="10.78" from="nt6_nt10" to="nt1_np16"/>
    <trip id="evening156" type="griddist1" depart="317.00" departPos="135.91" arrivalPos="55.70" from="nt10_nt11" to="np15_nt5"/>
    <trip id="evening157" type="griddist1" depart="324.00" departPos="67.52" arrivalPos="18.08" from="nt7_nt6" to="nt14_np11"/>
    <trip id="evening158" type="griddist1" depart="326.00" departPos="12.90" arrivalPos="61.74" from="nt11_nt7" to="nt2_np2"/>
    <trip id="evening159" type="griddist1" depart="330.00" departPos="122.49" arrivalPos="33.15" from="nt6_nt10" to="np16_nt1"/>
    <trip id="evening160" type="griddist1" depart="330.00" departPos="4.59" arrivalPos="47.22" from="nt7_nt6" to="np11_nt14"/>
    <trip id="evening161" type="griddist1" depart="334.00" departPos="122.99" arrivalPos="55.72" from="nt7_nt6" to="np8_nt16"/>
    <trip id="evening162" type="griddist1" depart="338.00" departPos="52.09" arrivalPos="72.91" from="nt6_nt10" to="np5_nt4"/>
    <trip id="evening163" type="griddist1" depart="340.00" departPos="130.55" arrivalPos="19.69" from="nt10_nt11" to="nt14_np11"/>
    <trip id="evening164" type="griddist1" depart="341.00" departPos="159.29" arrivalPos="55.93" from="nt7_nt6" to="nt8_np6"/>
    <trip id="evening165" type="griddist1" depart="342.00" departPos="11.85" arrivalPos="44.65" from="nt7_nt6" to="nt4_np5"/>
    <trip id="evening166" type="griddist1" depart="342.00" departPos="24.86" arrivalPos="9.49" from="nt7_nt6" to="nt4_np4"/>
    <trip id="evening167" type="griddist1" depart="343.00" departPos="66.66" arrivalPos="51.08" from="nt7_nt6" to="np4_nt4"/>
    <trip id="evening168" type="griddist1" depart="344.00" departPos="163.91" arrivalPos="25.45" from="nt10_nt11" to="np8_nt16"/>
    <trip id="evening169" type="griddist1" depart="346.00" departPos="156.42" arrivalPos="52.78" from="nt7_nt6" to="nt1_np16"/>
    <trip id="evening170" type="griddist1" depart="347.00" departPos="151.43" arrivalPos="38.75" from="nt10_nt11" to="nt2_np2"/>
    <trip id="evening171" type="griddist1" depart="347.00" departPos="107.85" arrivalPos="2.07" from="nt11_nt7" to="nt4_np4"/>
    <trip id="evening172" type="griddist1" depart="347.00" departPos="154.28" arrivalPos="37.36" from="nt6_nt10" to="np12_nt13"/>
    <trip id="evening173" type="griddist1" depart="347.00" departPos="49.38" arrivalPos="12.06" from="nt11_nt7" to="np14_nt9"/>
    <trip id="evening174" type="griddist1" depart="350.00" departPos="83.40" arrivalPos="28.41" from="nt7_nt6" to="np6_nt8"/>
    <trip id="evening175" type="griddist1" depart="353.00" departPos="57.48" arrivalPos="58.20" from="nt11_nt7" to="nt5_np15"/>
    <trip id="evening176" type="griddist1" depart="354.00" departPos="10.74" arrivalPos="37.85" from="nt11_nt7" to="np2_nt2"/>
    <trip id="evening177" type="griddist1" depart="359.00" departPos="49.38" arrivalPos="24.23" from="nt11_nt7" to="np1_nt1"/>
    <trip id="evening178" type="griddist1" depart="361.00" departPos="126.48" arrivalPos="36.14" from="nt7_nt6" to="np6_nt8"/>
    <trip id="evening179" type="griddist1" depart="364.00" departPos="139.31" arrivalPos="3.16" from="nt7_nt6" to="np2_nt2"/>
    <trip id="evening180" type="griddist1" depart="366.00" departPos="22.82" arrivalPos="6.86" from="nt6_nt10" to="nt4_np5"/>
    <trip id="evening181" type="griddist1" depart="368.00" departPos="116.75" arrivalPos="73.92" from="nt11_nt7" to="nt8_np6"/>
    <trip id="evening182" type="griddist1" depart="370.00" departPos="130.92" arrivalPos="35.83" from="nt11_nt7" to="nt16_np8"/>
    <trip id="evening183" type="griddist1" depart="370.00" departPos="169.22" arrivalPos="29.89" from="nt7_nt6" to="np13_nt13"/>
    <trip id="evening184" type="griddist1" depart="371.00" departPos="149.94" arrivalPos="71.10" from="nt10_nt11" to="nt12_np7"/>
    <trip id="evening185" type="griddist1" depart="373.00" departPos="24.17" arrivalPos="2.58" from="nt11_nt7" to="nt16_np8"/>
    <trip id="evening186" type="griddist1" depart="373.00" departPos="145.53" arrivalPos="60.48" from="nt7_nt6" to="nt14_np11"/>
    <trip id="evening187" type="griddist1" depart="376.00" departPos="168.44" arrivalPos="25.14" from="nt11_nt7" to="nt14_np11"/>
    <trip id="evening188" type="griddist1" depart="376.00" departPos="119.52" arrivalPos="53.23" from="nt11_nt7" to="nt16_np8"/>
    <trip id="evening189" type="griddist1" depart="377.00" departPos="52.55" arrivalPos="36.29" from="nt11_nt7" to="nt14_np11"/>
    <trip id="evening190" type="griddist1" depart="379.00" departPos="55.71" arrivalPos="3.14" from="nt10_nt11" to="np4_nt4"/>
    <trip id="evening191" type="griddist1" depart="380.00" departPos="167.95" arrivalPos="17.43" from="nt7_nt6" to="np12_nt13"/>
    <trip id="evening192" type="griddist1" depart="384.00" departPos="66.26" arrivalPos="14.41" from="nt7_nt6" to="nt1_np16"/>
    <trip id="evening193" type="griddist1" depart="385.00" departPos="122.35" arrivalPos="54.24" from="nt7_nt6" to="nt5_np15"/>
    <trip id="evening194" type="griddist1" depart="386.00" departPos="16.08" arrivalPos="55.27" from="nt6_nt10" to="np12_nt13"/>
    <trip id="evening195" type="griddist1" depart="387.00" departPos="10.02" arrivalPos="50.88" from="nt7_nt6" to="np2_nt2"/>
    <trip id="evening196" type="griddist1" depart="389.00" departPos="153.55" arrivalPos="21.61" from="nt10_nt11" to="np1_nt1"/>
    <trip id="evening197" type="griddist1" depart="392.00" departPos="181.46" arrivalPos="54.30" from="nt10_nt11" to="np1_nt1"/>
    <trip id="evening198" type="griddist1" depart="393.00" departPos="12.50" arrivalPos="73.70" from="nt7_nt6" to="np10_nt15"/>
    <trip id="evening199" type="griddist1" depart="395.00" departPos="143.47" arrivalPos="63.57" from="nt6_nt10" to="nt5_np15"/>
    <trip id="evening200" type="griddist1" depart="398.00" departPos="138.11" arrivalPos="62.11" from="nt11_nt7" to="nt14_np11"/>
    <trip id="evening201" type="griddist1" depart="398.00" departPos="119.11" arrivalPos="60.25" from="nt10_nt11" to="nt1_np1"/>
    <trip id="evening202" type="griddist1" depart="399.00" departPos="19.93" arrivalPos="57.60" from="nt7_nt6" to="np15_nt5"/>
    <trip id="evening203" type="griddist1" depart="400.00" departPos="65.97" arrivalPos="72.95" from="nt10_nt11" to="np12_nt13"/>
    <trip id="evening204" type="griddist1" depart="404.00" departPos="7.48" arrivalPos="5.76" from="nt7_nt6" to="np8_nt16"/>
    <trip id="evening205" type="griddist1" depart="404.00" departPos="130.37" arrivalPos="29.48" from="nt6_nt10" to="nt1_np1"/>
    <trip id="evening206" type="griddist1" depart="407.00" departPos="35.94" arrivalPos="31.52" from="nt11_nt7" to="nt3_np3"/>
    <trip id="evening207" type="griddist1" depart="409.00" departPos="116.89" arrivalPos="44.92" from="nt10_nt11" to="np11_nt14"/>
    <trip id="evening208" type="griddist1" depart="410.00" departPos="29.35" arrivalPos="52.68" from="nt7_nt6" to="nt14_np11"/>
    <trip id="evening209" type="griddist1" depart="410.00" departPos="55.88" arrivalPos="2.91" from="nt10_nt11" to="nt13_np13"/>
    <trip id="evening210" type="griddist1" depart="411.00" departPos="99.12" arrivalPos="40.93" from="nt6_nt10" to="nt4_np4"/>
    <trip id="evening211" type="griddist1" depart="412.00" departPos="145.50" arrivalPos="29.81" from="nt6_nt10" to="nt13_np12"/>
    <trip id="evening212" type="griddist1" depart="413.00" departPos="30.90" arrivalPos="14.19" from="nt11_nt7" to="nt3_np3"/>
    <trip id="evening213" type="griddist1" depart="414.00" departPos="55.48" arrivalPos="49.12" from="nt10_nt11" to="nt16_np9"/>
    <trip id="evening214" type="griddist1" depart="415.00" departPos="48.81" arrivalPos="6.68" from="nt10_nt11" to="np11_nt14"/>
    <trip id="evening215" type="griddist1" depart="416.00" departPos="24.33" arrivalPos="29.31" from="nt6_nt10" to="nt2_np2"/>
    <trip id="evening216" type="griddist1" depart="423.00" departPos="151.13" arrivalPos="16.45" from="nt11_nt7" to="np10_nt15"/>
    <trip id="evening217" type="griddist1" depart="436.00" departPos="91.29" arrivalPos="74.52" from="nt11_nt7" to="np10_nt15"/>
    <trip id="evening218" type="griddist1" depart="437.00" departPos="48.67" arrivalPos="21.55" from="nt10_nt11" to="nt13_np13"/>
    <trip id="evening219" type="griddist1" depart="437.00" departPos="104.86" arrivalPos="52.83" from="nt6_nt10" to="np13_nt13"/>
    <trip id="evening220" type="griddist1" depart="438.00" departPos="165.32" arrivalPos="12.57" from="nt7_nt6" to="nt16_np9"/>
    <trip id="evening221" type="griddist1" depart="439.00" departPos="130.82" arrivalPos="55.04" from="nt6_nt10" to="nt13_np13"/>